 Abaqus/Standard 2020                  DATE 31-Jan-2024 TIME 22:36:17
 SUMMARY OF JOB INFORMATION:
 STEP  INC ATT SEVERE EQUIL TOTAL  TOTAL      STEP       INC OF       DOF    IF
               DISCON ITERS ITERS  TIME/    TIME/LPF    TIME/LPF    MONITOR RIKS
               ITERS               FREQ
   1     1   1     0     1     1  1.00e-06   1.00e-06   1.000e-06 
   1     2   1     0     1     1  2.00e-06   2.00e-06   1.000e-06 
   1     3   1     0     1     1  3.00e-06   3.00e-06   1.000e-06 
   1     4   1     0     1     1  4.25e-06   4.25e-06   1.250e-06 
   1     5   1     0     1     1  5.81e-06   5.81e-06   1.562e-06 
   1     6   1     0     1     1  7.77e-06   7.77e-06   1.953e-06 
   1     7   1     0     1     1  1.02e-05   1.02e-05   2.441e-06 
   1     8   1     0     1     1  1.33e-05   1.33e-05   3.052e-06 
   1     9   1     0     1     1  1.71e-05   1.71e-05   3.815e-06 
   1    10   1     0     1     1  2.18e-05   2.18e-05   4.768e-06 
   1    11   1     0     1     1  2.78e-05   2.78e-05   5.960e-06 
   1    12   1     0     1     1  3.53e-05   3.53e-05   7.451e-06 
   1    13   1     0     1     1  4.46e-05   4.46e-05   9.313e-06 
   1    14   1     0     1     1  5.62e-05   5.62e-05   1.164e-05 
   1    15   1     0     1     1  7.08e-05   7.08e-05   1.455e-05 
   1    16   1     0     1     1  8.89e-05   8.89e-05   1.819e-05 
   1    17   1     0     1     1  0.000112   0.000112   2.274e-05 
   1    18   1     0     1     1  0.000140   0.000140   2.842e-05 
   1    19   1     0     1     1  0.000176   0.000176   3.553e-05 
   1    20   1     0     1     1  0.000220   0.000220   4.441e-05 
   1    21   1     0     1     1  0.000276   0.000276   5.551e-05 
   1    22   1     0     1     1  0.000331   0.000331   5.551e-05 
   1    23   1     0     1     1  0.000387   0.000387   5.551e-05 
   1    24   1     0     1     1  0.000442   0.000442   5.551e-05 
   1    25   1     0     1     1  0.000498   0.000498   5.551e-05 
   1    26   1     0     1     1  0.000553   0.000553   5.551e-05 
   1    27   1     0     1     1  0.000609   0.000609   5.551e-05 
   1    28   1     0     1     1  0.000664   0.000664   5.551e-05 
   1    29   1     0     1     1  0.000731   0.000731   6.649e-05 
   1    30   1     0     1     1  0.000797   0.000797   6.649e-05 
   1    31   1     0     1     1  0.000864   0.000864   6.649e-05 
   1    32   1     0     1     1  0.000930   0.000930   6.649e-05 
   1    33   1     0     1     1  0.00101    0.00101    8.312e-05 
   1    34   1     0     1     1  0.00110    0.00110    8.312e-05 
   1    35   1     0     1     1  0.00118    0.00118    8.312e-05 
   1    36   1     0     1     1  0.00126    0.00126    8.312e-05 
   1    37   1     0     1     1  0.00136    0.00136    0.0001000 
   1    38   1     0     1     1  0.00146    0.00146    0.0001000 
   1    39   1     0     1     1  0.00156    0.00156    0.0001000 
   1    40   1     0     1     1  0.00166    0.00166    0.0001000 
   1    41   1     0     1     1  0.00176    0.00176    0.0001000 
   1    42   1     0     1     1  0.00186    0.00186    0.0001000 
   1    43   1     0     1     1  0.00196    0.00196    0.0001000 
   1    44   1     0     1     1  0.00206    0.00206    0.0001000 
   1    45   1     0     1     1  0.00216    0.00216    0.0001000 
   1    46   1     0     1     1  0.00226    0.00226    0.0001000 
   1    47   1     0     1     1  0.00236    0.00236    0.0001000 
   1    48   1     0     1     1  0.00246    0.00246    0.0001000 
   1    49   1     0     1     1  0.00256    0.00256    0.0001000 
   1    50   1     0     1     1  0.00266    0.00266    0.0001000 
   1    51   1     0     1     1  0.00276    0.00276    0.0001000 
   1    52   1     0     1     1  0.00286    0.00286    0.0001000 
   1    53   1     0     1     1  0.00296    0.00296    0.0001000 
   1    54   1     0     1     1  0.00306    0.00306    0.0001000 
   1    55   1     0     1     1  0.00316    0.00316    0.0001000 
   1    56   1     0     1     1  0.00326    0.00326    0.0001000 
   1    57   1     0     1     1  0.00336    0.00336    0.0001000 
   1    58   1     0     1     1  0.00346    0.00346    0.0001000 
   1    59   1     0     1     1  0.00356    0.00356    0.0001000 
   1    60   1     0     1     1  0.00366    0.00366    0.0001000 
   1    61   1     0     1     1  0.00376    0.00376    0.0001000 
   1    62   1     0     1     1  0.00386    0.00386    0.0001000 
   1    63   1     0     1     1  0.00396    0.00396    0.0001000 
   1    64   1     0     1     1  0.00406    0.00406    0.0001000 
   1    65   1     0     1     1  0.00416    0.00416    0.0001000 
   1    66   1     0     1     1  0.00426    0.00426    0.0001000 
   1    67   1     0     1     1  0.00436    0.00436    0.0001000 
   1    68   1     0     1     1  0.00446    0.00446    0.0001000 
   1    69   1     0     1     1  0.00456    0.00456    0.0001000 
   1    70   1     0     1     1  0.00466    0.00466    0.0001000 
   1    71   1     0     1     1  0.00476    0.00476    0.0001000 
   1    72   1     0     1     1  0.00486    0.00486    0.0001000 
   1    73   1     0     1     1  0.00496    0.00496    0.0001000 
   1    74   1     0     1     1  0.00506    0.00506    0.0001000 
   1    75   1     0     1     1  0.00516    0.00516    0.0001000 
   1    76   1     0     1     1  0.00526    0.00526    0.0001000 
   1    77   1     0     1     1  0.00536    0.00536    0.0001000 
   1    78   1     0     1     1  0.00546    0.00546    0.0001000 
   1    79   1     0     1     1  0.00556    0.00556    0.0001000 
   1    80   1     0     1     1  0.00566    0.00566    0.0001000 
   1    81   1     0     1     1  0.00576    0.00576    0.0001000 
   1    82   1     0     1     1  0.00586    0.00586    0.0001000 
   1    83   1     0     1     1  0.00596    0.00596    0.0001000 
   1    84   1     0     1     1  0.00606    0.00606    0.0001000 
   1    85   1     0     1     1  0.00616    0.00616    0.0001000 
   1    86   1     0     1     1  0.00626    0.00626    0.0001000 
   1    87   1     0     1     1  0.00636    0.00636    0.0001000 
   1    88   1     0     1     1  0.00646    0.00646    0.0001000 
   1    89   1     0     1     1  0.00656    0.00656    0.0001000 
   1    90   1     0     1     1  0.00666    0.00666    0.0001000 
   1    91   1     0     1     1  0.00676    0.00676    0.0001000 
   1    92   1     0     1     1  0.00686    0.00686    0.0001000 
   1    93   1     0     1     1  0.00696    0.00696    0.0001000 
   1    94   1     0     1     1  0.00706    0.00706    0.0001000 
   1    95   1     0     1     1  0.00716    0.00716    0.0001000 
   1    96   1     0     1     1  0.00726    0.00726    0.0001000 
   1    97   1     0     1     1  0.00736    0.00736    0.0001000 
   1    98   1     0     1     1  0.00746    0.00746    0.0001000 
   1    99   1     0     1     1  0.00756    0.00756    0.0001000 
   1   100   1     0     1     1  0.00766    0.00766    0.0001000 
   1   101   1     0     1     1  0.00776    0.00776    0.0001000 
   1   102   1     0     1     1  0.00786    0.00786    0.0001000 
   1   103   1     0     1     1  0.00796    0.00796    0.0001000 
   1   104   1     0     1     1  0.00806    0.00806    0.0001000 
   1   105   1     0     1     1  0.00816    0.00816    0.0001000 
   1   106   1     0     1     1  0.00826    0.00826    0.0001000 
   1   107   1     0     1     1  0.00836    0.00836    0.0001000 
   1   108   1     0     1     1  0.00846    0.00846    0.0001000 
   1   109   1     0     1     1  0.00856    0.00856    0.0001000 
   1   110   1     0     1     1  0.00866    0.00866    0.0001000 
   1   111   1     0     1     1  0.00876    0.00876    0.0001000 
   1   112   1     0     1     1  0.00886    0.00886    0.0001000 
   1   113   1     0     1     1  0.00896    0.00896    0.0001000 
   1   114   1     0     1     1  0.00906    0.00906    0.0001000 
   1   115   1     0     1     1  0.00916    0.00916    0.0001000 
   1   116   1     0     1     1  0.00926    0.00926    0.0001000 
   1   117   1     0     1     1  0.00936    0.00936    0.0001000 
   1   118   1     0     1     1  0.00946    0.00946    0.0001000 
   1   119   1     0     1     1  0.00956    0.00956    0.0001000 
   1   120   1     0     1     1  0.00966    0.00966    0.0001000 
   1   121   1     0     1     1  0.00976    0.00976    0.0001000 
   1   122   1     0     1     1  0.00986    0.00986    0.0001000 
   1   123   1     0     1     1  0.00996    0.00996    0.0001000 
   1   124   1     0     1     1  0.0100     0.0100     3.741e-05 
                          
 THE ANALYSIS HAS COMPLETED SUCCESSFULLY
