1

   Abaqus 2020                                  Date 04-Feb-2024   Time 21:11:50
   For use by Supplied by Team-SolidSQUAD under license from Dassault Systemes or its subsidiary.

                                                                                 
                                                                                 
 STEP    1     INCREMENT     1     STEP TIME    0.00    


                        S T E P       1     D Y N A M I C   A N A L Y S I S - I M P L I C I T  I N T E G R A T I O N


                                                                                          

          DYNAMIC APPLICATION PACKED SCHEME IS                 TRANSIENT FIDELITY  
          HILBER-HUGHES-TAYLOR (HHT) TIME INTEGRATOR IS USED

     AUTOMATIC TIME CONTROL WITH -
          A SUGGESTED INITIAL TIME INCREMENT OF                1.000E-06
          AND A TOTAL TIME PERIOD OF                           1.000E-02
          THE MINIMUM TIME INCREMENT ALLOWED IS                1.000E-07
          THE MAXIMUM TIME INCREMENT ALLOWED IS                1.000E-04
          SCALE FACTOR ON TIME AVERAGE FORCE FOR HALF-
           -INCREMENT RESIDUAL COMPUTATIONS IS                 1.000E+03

          HILBER-HUGHES-TAYLOR METHOD PARAMETERS:  ALPHA   IS  -5.000000E-02
                                                   BETA    IS   0.275625    
                                                   GAMMA   IS   0.550000    
          SINGULAR MASS TREATMENT TYPE IS                     ERROR
          CONSERVATIVE TIME INCREMENTATION IS USED
          STEP AMPLITUDE IS                                    STEP

 CONVERGENCE TOLERANCE PARAMETERS FOR FORCE    
     CRITERION FOR RESIDUAL FORCE     FOR A NONLINEAR PROBLEM          5.000E-03
     CRITERION FOR DISP.    CORRECTION IN A NONLINEAR PROBLEM          1.000E-02
     INITIAL VALUE OF TIME AVERAGE FORCE                               1.000E-02
     AVERAGE FORCE     IS TIME AVERAGE FORCE    
     ALTERNATE CRIT. FOR RESIDUAL FORCE     FOR A NONLINEAR PROBLEM    2.000E-02
     CRITERION FOR ZERO FORCE     RELATIVE TO TIME AVRG. FORCE         1.000E-05
     CRITERION FOR RESIDUAL FORCE     WHEN THERE IS ZERO FLUX          1.000E-05
     CRITERION FOR DISP.    CORRECTION WHEN THERE IS ZERO FLUX         1.000E-03
     CRITERION FOR RESIDUAL FORCE     FOR A LINEAR INCREMENT           1.000E-08
     FIELD CONVERSION RATIO                                             1.00    
     CRITERION FOR ZERO FORCE     REL. TO TIME AVRG. MAX. FORCE        1.000E-05
     CRITERION FOR ZERO DISP.    RELATIVE TO CHARACTERISTIC LENGTH     1.000E-08

 CONVERGENCE TOLERANCE PARAMETERS FOR MOMENT   
     CRITERION FOR RESIDUAL MOMENT    FOR A NONLINEAR PROBLEM          5.000E-03
     CRITERION FOR ROTATION CORRECTION IN A NONLINEAR PROBLEM          1.000E-02
     INITIAL VALUE OF TIME AVERAGE MOMENT                              1.000E-02
     AVERAGE MOMENT    IS TIME AVERAGE MOMENT   
     ALTERNATE CRIT. FOR RESIDUAL MOMENT    FOR A NONLINEAR PROBLEM    2.000E-02
     CRITERION FOR ZERO MOMENT    RELATIVE TO TIME AVRG. MOMENT        1.000E-05
     CRITERION FOR RESIDUAL MOMENT    WHEN THERE IS ZERO FLUX          1.000E-05
     CRITERION FOR ROTATION CORRECTION WHEN THERE IS ZERO FLUX         1.000E-03
     CRITERION FOR RESIDUAL MOMENT    FOR A LINEAR INCREMENT           1.000E-08
     FIELD CONVERSION RATIO                                             1.00    
     CRITERION FOR ZERO MOMENT    REL. TO TIME AVRG. MAX. MOMENT       1.000E-05

     VOLUMETRIC STRAIN COMPATIBILITY TOLERANCE FOR HYBRID SOLIDS       1.000E-05
     AXIAL STRAIN COMPATIBILITY TOLERANCE FOR HYBRID BEAMS             1.000E-05
     TRANS. SHEAR STRAIN COMPATIBILITY TOLERANCE FOR HYBRID BEAMS      1.000E-05
     SOFT CONTACT CONSTRAINT COMPATIBILITY TOLERANCE FOR P>P0          5.000E-03
     SOFT CONTACT CONSTRAINT COMPATIBILITY TOLERANCE FOR P=0.0         0.100    
     CONTACT FORCE ERROR TOLERANCE FOR CONVERT SDI=YES                 1.00    
     DISPLACEMENT COMPATIBILITY TOLERANCE FOR DCOUP ELEMENTS           1.000E-05
     ROTATION COMPATIBILITY TOLERANCE FOR DCOUP ELEMENTS               1.000E-05

 EQUILIBRIUM WILL BE CHECKED FOR SEVERE DISCONTINUITY ITERATIONS

 TIME INCREMENTATION CONTROL PARAMETERS:
     FIRST EQUILIBRIUM ITERATION FOR CONSECUTIVE DIVERGENCE CHECK              4
     EQUILIBRIUM ITERATION AT WHICH LOG. CONVERGENCE RATE CHECK BEGINS         8
     EQUILIBRIUM ITERATION AFTER WHICH ALTERNATE RESIDUAL IS USED              9
     MAXIMUM EQUILIBRIUM ITERATIONS ALLOWED                                   16
     EQUILIBRIUM ITERATION COUNT FOR CUT-BACK IN NEXT INCREMENT               10
     MAXIMUM EQUILIB. ITERS IN TWO INCREMENTS FOR TIME INCREMENT INCREASE      4
     MAXIMUM ITERATIONS FOR SEVERE DISCONTINUITIES                            50
     MAXIMUM ATTEMPTS ALLOWED IN AN INCREMENT                                  5
     MAXIMUM DISCON. ITERS IN TWO INCREMENTS FOR TIME INCREMENT INCREASE      50
     MAXIMUM CONTACT AUGMENTATIONS FOR *SURFACE BEHAVIOR,AUGMENTED LAGRANGE   50
     CONSECUTIVE INCS MEETING TIME INTEG. TOL. FOR TIME INC. INCREASE          3
     CUT-BACK FACTOR AFTER DIVERGENCE                                 0.2500    
     CUT-BACK FACTOR FOR TOO SLOW CONVERGENCE                         0.5000    
     CUT-BACK FACTOR AFTER TOO MANY EQUILIBRIUM ITERATIONS            0.7500    
     CUT-BACK FACTOR AFTER TOO MANY SEVERE DISCONTINUITY ITERATIONS   0.2500    
     CUT-BACK FACTOR AFTER PROBLEMS IN ELEMENT ASSEMBLY               0.2500    
     INCREASE FACTOR AFTER TWO INCREMENTS THAT CONVERGE QUICKLY        1.500    
     MAX. TIME INCREMENT INCREASE FACTOR ALLOWED                       1.500    
     MAX. TIME INCREMENT INCREASE FACTOR ALLOWED (DYNAMICS)            1.250    
     MAX. TIME INCREMENT INCREASE FACTOR ALLOWED (DIFFUSION)           2.000    
     MINIMUM TIME INCREMENT RATIO FOR EXTRAPOLATION TO OCCUR          0.1000    
     CUT-BACK FACTOR WHEN TIME INTEGRATION ACCURACY TOL. EXCEEDED     0.8500    
     MAX. RATIO OF TIME INTEG. MEASURE TO TOL. FOR TIME INC. INCREASE 0.7500    
     INCREASE FACTOR FOR TIME INCREMENT WHEN POSSIBLE                 0.8000    
     MIN. TIME INC. INCREASE FACTOR IN LINEAR TRANSIENT PROBLEMS      0.9500    
     MAX. RATIO OF TIME INCREMENT TO STABILITY LIMIT                   1.000    
     FRACTION OF STABILITY LIMIT FOR NEW TIME INCREMENT               0.9500    
     TIME INCREMENT INCREASE FACTOR BEFORE A TIME POINT                1.000    
     GLOBAL STABILIZATION CONTROL IS NOT USED

          PRINT OF INCREMENT NUMBER, TIME, ETC., EVERY    1  INCREMENTS

     THE MAXIMUM NUMBER OF INCREMENTS IN THIS STEP IS                 1000000

     VELOCITY-BASED PARABOLIC EXTRAPOLATION WILL BE USED

     CHARACTERISTIC ELEMENT LENGTH      2.00    

     DETAILS REGARDING ACTUAL SOLUTION WAVEFRONT REQUESTED

     DETAILED OUTPUT OF DIAGNOSTICS TO DATABASE REQUESTED

     PRINT OF INCREMENT NUMBER, TIME, ETC., TO THE MESSAGE FILE EVERY     1  INCREMENTS

     COLLECTING MODEL CONSTRAINT INFORMATION FOR OVERCONSTRAINT CHECKS

     COLLECTING STEP CONSTRAINT INFORMATION FOR OVERCONSTRAINT CHECKS

  NUMBER OF EQUATIONS =      3006     NUMBER OF RHS =    1
  NUMBER OF FLOATING PT. OPERATIONS =  8.47E+05

     CHECK POINT   START OF SOLVER    

     CHECK POINT  END OF SOLVER       

       ELAPSED USER TIME (SEC)      =   0.0000    
       ELAPSED SYSTEM TIME (SEC)    =   0.0000    
       ELAPSED TOTAL CPU TIME (SEC) =   0.0000    
       ELAPSED WALLCLOCK TIME (SEC) =          0

  NUMBER OF EQUATIONS =      3006     NUMBER OF RHS =    1
  NUMBER OF FLOATING PT. OPERATIONS =  8.47E+05

     CHECK POINT   START OF SOLVER    

     CHECK POINT  END OF SOLVER       

       ELAPSED USER TIME (SEC)      =   0.0000    
       ELAPSED SYSTEM TIME (SEC)    =   0.0000    
       ELAPSED TOTAL CPU TIME (SEC) =   0.0000    
       ELAPSED WALLCLOCK TIME (SEC) =          0


  INCREMENT     1 STARTS. ATTEMPT NUMBER  1, TIME INCREMENT  1.000E-06

  NUMBER OF EQUATIONS =      3006     NUMBER OF RHS =    1
  NUMBER OF FLOATING PT. OPERATIONS =  8.47E+05

     CHECK POINT   START OF SOLVER    

     CHECK POINT  END OF SOLVER       

       ELAPSED USER TIME (SEC)      =  0.10000    
       ELAPSED SYSTEM TIME (SEC)    =   0.0000    
       ELAPSED TOTAL CPU TIME (SEC) =  0.10000    
       ELAPSED WALLCLOCK TIME (SEC) =          0

               CONVERGENCE CHECKS FOR EQUILIBRIUM ITERATION     1


 AVERAGE FORCE                      3.824E-04   TIME AVG. FORCE       3.824E-04
 LARGEST RESIDUAL FORCE             5.421E-20   AT NODE        501   DOF  2
   INSTANCE: BEAM                                                                            
 LARGEST INCREMENT OF DISP.         1.850E-08   AT NODE        101   DOF  2
   INSTANCE: BEAM                                                                            
 LARGEST CORRECTION TO DISP.        1.850E-08   AT NODE        101   DOF  2
   INSTANCE: BEAM                                                                            
          THE FORCE     EQUILIBRIUM RESPONSE WAS LINEAR IN THIS INCREMENT

 AVERAGE MOMENT                     6.202E-06   TIME AVG. MOMENT      6.202E-06
 LARGEST RESIDUAL MOMENT            1.626E-19   AT NODE        501   DOF  6
   INSTANCE: BEAM                                                                            
 LARGEST INCREMENT OF ROTATION      1.550E-10   AT NODE        101   DOF  6
   INSTANCE: BEAM                                                                            
 LARGEST CORRECTION TO ROTATION     1.550E-10   AT NODE        101   DOF  6
   INSTANCE: BEAM                                                                            
          THE MOMENT    EQUILIBRIUM RESPONSE WAS LINEAR IN THIS INCREMENT

  MAXIMUM HALF-INCREMENT FORCE RESIDUAL IS   4.195E-03 AND OCCURS AT NODE        101 INSTANCE BEAM                                                                            
  MAXIMUM HALF-INCREMENT MOMENT RESIDUAL IS  -2.200E-04 AND OCCURS AT NODE        501 INSTANCE BEAM                                                                            

 ITERATION SUMMARY FOR THE INCREMENT:   1 TOTAL ITERATIONS, OF WHICH
   0 ARE SEVERE DISCONTINUITY ITERATIONS AND  1 ARE EQUILIBRIUM ITERATIONS.

 TIME INCREMENT COMPLETED  1.000E-06,  FRACTION OF STEP COMPLETED  1.000E-04
 STEP TIME COMPLETED       1.000E-06,  TOTAL TIME COMPLETED        1.000E-06


  INCREMENT     2 STARTS. ATTEMPT NUMBER  1, TIME INCREMENT  1.000E-06

  NUMBER OF EQUATIONS =      3006     NUMBER OF RHS =    1
  NUMBER OF FLOATING PT. OPERATIONS =  8.47E+05

     CHECK POINT   START OF SOLVER    

     CHECK POINT  END OF SOLVER       

       ELAPSED USER TIME (SEC)      =   0.0000    
       ELAPSED SYSTEM TIME (SEC)    =   0.0000    
       ELAPSED TOTAL CPU TIME (SEC) =   0.0000    
       ELAPSED WALLCLOCK TIME (SEC) =          0

               CONVERGENCE CHECKS FOR EQUILIBRIUM ITERATION     1


 AVERAGE FORCE                      3.994E-03   TIME AVG. FORCE       2.188E-03
 LARGEST RESIDUAL FORCE            -1.355E-19   AT NODE        500   DOF  2
   INSTANCE: BEAM                                                                            
 LARGEST INCREMENT OF DISP.         1.269E-07   AT NODE        101   DOF  2
   INSTANCE: BEAM                                                                            
 LARGEST CORRECTION TO DISP.        7.161E-08   AT NODE        101   DOF  2
   INSTANCE: BEAM                                                                            
          THE FORCE     EQUILIBRIUM RESPONSE WAS LINEAR IN THIS INCREMENT

 AVERAGE MOMENT                     7.105E-04   TIME AVG. MOMENT      3.584E-04
 LARGEST RESIDUAL MOMENT           -1.735E-18   AT NODE        501   DOF  6
   INSTANCE: BEAM                                                                            
 LARGEST INCREMENT OF ROTATION      1.578E-09   AT NODE        101   DOF  6
   INSTANCE: BEAM                                                                            
 LARGEST CORRECTION TO ROTATION     1.115E-09   AT NODE        101   DOF  6
   INSTANCE: BEAM                                                                            
          THE MOMENT    EQUILIBRIUM RESPONSE WAS LINEAR IN THIS INCREMENT

  MAXIMUM HALF-INCREMENT FORCE RESIDUAL IS   1.388E-02 AND OCCURS AT NODE        101 INSTANCE BEAM                                                                            
  MAXIMUM HALF-INCREMENT MOMENT RESIDUAL IS  -9.008E-04 AND OCCURS AT NODE        501 INSTANCE BEAM                                                                            

 ITERATION SUMMARY FOR THE INCREMENT:   1 TOTAL ITERATIONS, OF WHICH
   0 ARE SEVERE DISCONTINUITY ITERATIONS AND  1 ARE EQUILIBRIUM ITERATIONS.

 TIME INCREMENT COMPLETED  1.000E-06,  FRACTION OF STEP COMPLETED  2.000E-04
 STEP TIME COMPLETED       2.000E-06,  TOTAL TIME COMPLETED        2.000E-06


  INCREMENT     3 STARTS. ATTEMPT NUMBER  1, TIME INCREMENT  1.000E-06

  NUMBER OF EQUATIONS =      3006     NUMBER OF RHS =    1
  NUMBER OF FLOATING PT. OPERATIONS =  8.47E+05

     CHECK POINT   START OF SOLVER    

     CHECK POINT  END OF SOLVER       

       ELAPSED USER TIME (SEC)      =   0.0000    
       ELAPSED SYSTEM TIME (SEC)    =   0.0000    
       ELAPSED TOTAL CPU TIME (SEC) =   0.0000    
       ELAPSED WALLCLOCK TIME (SEC) =          0

               CONVERGENCE CHECKS FOR EQUILIBRIUM ITERATION     1


 AVERAGE FORCE                      3.673E-03   TIME AVG. FORCE       2.683E-03
 LARGEST RESIDUAL FORCE             1.735E-17   AT NODE        101   DOF  2
   INSTANCE: BEAM                                                                            
 LARGEST INCREMENT OF DISP.         3.087E-07   AT NODE        101   DOF  2
   INSTANCE: BEAM                                                                            
 LARGEST CORRECTION TO DISP.        1.386E-08   AT NODE        501   DOF  2
   INSTANCE: BEAM                                                                            
          THE FORCE     EQUILIBRIUM RESPONSE WAS LINEAR IN THIS INCREMENT

 AVERAGE MOMENT                     2.150E-03   TIME AVG. MOMENT      9.556E-04
 LARGEST RESIDUAL MOMENT           -4.337E-19   AT NODE        101   DOF  6
   INSTANCE: BEAM                                                                            
 LARGEST INCREMENT OF ROTATION      6.873E-09   AT NODE        101   DOF  6
   INSTANCE: BEAM                                                                            
 LARGEST CORRECTION TO ROTATION     2.766E-09   AT NODE        101   DOF  6
   INSTANCE: BEAM                                                                            
          THE MOMENT    EQUILIBRIUM RESPONSE WAS LINEAR IN THIS INCREMENT

  MAXIMUM HALF-INCREMENT FORCE RESIDUAL IS  -4.707E-03 AND OCCURS AT NODE        101 INSTANCE BEAM                                                                            
  MAXIMUM HALF-INCREMENT MOMENT RESIDUAL IS  -5.204E-04 AND OCCURS AT NODE        500 INSTANCE BEAM                                                                            
          TIME INCREMENT MAY NOW INCREASE TO    1.250E-06

 ITERATION SUMMARY FOR THE INCREMENT:   1 TOTAL ITERATIONS, OF WHICH
   0 ARE SEVERE DISCONTINUITY ITERATIONS AND  1 ARE EQUILIBRIUM ITERATIONS.

 TIME INCREMENT COMPLETED  1.000E-06,  FRACTION OF STEP COMPLETED  3.000E-04
 STEP TIME COMPLETED       3.000E-06,  TOTAL TIME COMPLETED        3.000E-06


  INCREMENT     4 STARTS. ATTEMPT NUMBER  1, TIME INCREMENT  1.250E-06

  NUMBER OF EQUATIONS =      3006     NUMBER OF RHS =    1
  NUMBER OF FLOATING PT. OPERATIONS =  8.47E+05

     CHECK POINT   START OF SOLVER    

     CHECK POINT  END OF SOLVER       

       ELAPSED USER TIME (SEC)      =   0.0000    
       ELAPSED SYSTEM TIME (SEC)    =   0.0000    
       ELAPSED TOTAL CPU TIME (SEC) =   0.0000    
       ELAPSED WALLCLOCK TIME (SEC) =          0

               CONVERGENCE CHECKS FOR EQUILIBRIUM ITERATION     1


 AVERAGE FORCE                      1.011E-02   TIME AVG. FORCE       4.541E-03
 LARGEST RESIDUAL FORCE             4.163E-17   AT NODE        101   DOF  2
   INSTANCE: BEAM                                                                            
 LARGEST INCREMENT OF DISP.         1.009E-07   AT NODE        501   DOF  2
   INSTANCE: BEAM                                                                            
 LARGEST CORRECTION TO DISP.       -5.862E-07   AT NODE        101   DOF  2
   INSTANCE: BEAM                                                                            
          THE FORCE     EQUILIBRIUM RESPONSE WAS LINEAR IN THIS INCREMENT

 AVERAGE MOMENT                     2.539E-03   TIME AVG. MOMENT      1.351E-03
 LARGEST RESIDUAL MOMENT           -5.204E-18   AT NODE        501   DOF  6
   INSTANCE: BEAM                                                                            
 LARGEST INCREMENT OF ROTATION      1.914E-08   AT NODE        101   DOF  6
   INSTANCE: BEAM                                                                            
 LARGEST CORRECTION TO ROTATION     2.160E-09   AT NODE        500   DOF  6
   INSTANCE: BEAM                                                                            
          THE MOMENT    EQUILIBRIUM RESPONSE WAS LINEAR IN THIS INCREMENT

  MAXIMUM HALF-INCREMENT FORCE RESIDUAL IS  -7.455E-02 AND OCCURS AT NODE        101 INSTANCE BEAM                                                                            
  MAXIMUM HALF-INCREMENT MOMENT RESIDUAL IS   6.466E-03 AND OCCURS AT NODE        501 INSTANCE BEAM                                                                            
          TIME INCREMENT MAY NOW INCREASE TO    1.562E-06

 ITERATION SUMMARY FOR THE INCREMENT:   1 TOTAL ITERATIONS, OF WHICH
   0 ARE SEVERE DISCONTINUITY ITERATIONS AND  1 ARE EQUILIBRIUM ITERATIONS.

 TIME INCREMENT COMPLETED  1.250E-06,  FRACTION OF STEP COMPLETED  4.250E-04
 STEP TIME COMPLETED       4.250E-06,  TOTAL TIME COMPLETED        4.250E-06


  INCREMENT     5 STARTS. ATTEMPT NUMBER  1, TIME INCREMENT  1.562E-06

  NUMBER OF EQUATIONS =      3006     NUMBER OF RHS =    1
  NUMBER OF FLOATING PT. OPERATIONS =  8.47E+05

     CHECK POINT   START OF SOLVER    

     CHECK POINT  END OF SOLVER       

       ELAPSED USER TIME (SEC)      =   0.0000    
       ELAPSED SYSTEM TIME (SEC)    =   0.0000    
       ELAPSED TOTAL CPU TIME (SEC) =   0.0000    
       ELAPSED WALLCLOCK TIME (SEC) =          0

               CONVERGENCE CHECKS FOR EQUILIBRIUM ITERATION     1


 AVERAGE FORCE                      1.524E-02   TIME AVG. FORCE       6.680E-03
 LARGEST RESIDUAL FORCE            -5.551E-17   AT NODE        101   DOF  2
   INSTANCE: BEAM                                                                            
 LARGEST INCREMENT OF DISP.        -1.951E-06   AT NODE        101   DOF  2
   INSTANCE: BEAM                                                                            
 LARGEST CORRECTION TO DISP.       -7.881E-07   AT NODE        101   DOF  2
   INSTANCE: BEAM                                                                            
          THE FORCE     EQUILIBRIUM RESPONSE WAS LINEAR IN THIS INCREMENT

 AVERAGE MOMENT                     6.629E-03   TIME AVG. MOMENT      2.407E-03
 LARGEST RESIDUAL MOMENT            1.640E-17   AT NODE        101   DOF  6
   INSTANCE: BEAM                                                                            
 LARGEST INCREMENT OF ROTATION      1.303E-08   AT NODE        500   DOF  6
   INSTANCE: BEAM                                                                            
 LARGEST CORRECTION TO ROTATION    -4.468E-08   AT NODE        101   DOF  6
   INSTANCE: BEAM                                                                            
          THE MOMENT    EQUILIBRIUM RESPONSE WAS LINEAR IN THIS INCREMENT

  MAXIMUM HALF-INCREMENT FORCE RESIDUAL IS  -4.765E-02 AND OCCURS AT NODE        101 INSTANCE BEAM                                                                            
  MAXIMUM HALF-INCREMENT MOMENT RESIDUAL IS   1.050E-02 AND OCCURS AT NODE        501 INSTANCE BEAM                                                                            
          TIME INCREMENT MAY NOW INCREASE TO    1.953E-06

 ITERATION SUMMARY FOR THE INCREMENT:   1 TOTAL ITERATIONS, OF WHICH
   0 ARE SEVERE DISCONTINUITY ITERATIONS AND  1 ARE EQUILIBRIUM ITERATIONS.

 TIME INCREMENT COMPLETED  1.562E-06,  FRACTION OF STEP COMPLETED  5.812E-04
 STEP TIME COMPLETED       5.812E-06,  TOTAL TIME COMPLETED        5.812E-06


  INCREMENT     6 STARTS. ATTEMPT NUMBER  1, TIME INCREMENT  1.953E-06

  NUMBER OF EQUATIONS =      3006     NUMBER OF RHS =    1
  NUMBER OF FLOATING PT. OPERATIONS =  8.47E+05

     CHECK POINT   START OF SOLVER    

     CHECK POINT  END OF SOLVER       

       ELAPSED USER TIME (SEC)      =   0.0000    
       ELAPSED SYSTEM TIME (SEC)    =   0.0000    
       ELAPSED TOTAL CPU TIME (SEC) =   0.0000    
       ELAPSED WALLCLOCK TIME (SEC) =          0

               CONVERGENCE CHECKS FOR EQUILIBRIUM ITERATION     1


 AVERAGE FORCE                      2.666E-02   TIME AVG. FORCE       1.001E-02
 LARGEST RESIDUAL FORCE            -1.110E-16   AT NODE        101   DOF  2
   INSTANCE: BEAM                                                                            
 LARGEST INCREMENT OF DISP.        -1.280E-06   AT NODE        101   DOF  2
   INSTANCE: BEAM                                                                            
 LARGEST CORRECTION TO DISP.        5.306E-06   AT NODE        101   DOF  2
   INSTANCE: BEAM                                                                            
          THE FORCE     EQUILIBRIUM RESPONSE WAS LINEAR IN THIS INCREMENT

 AVERAGE MOMENT                     9.671E-03   TIME AVG. MOMENT      3.618E-03
 LARGEST RESIDUAL MOMENT            5.551E-17   AT NODE        501   DOF  6
   INSTANCE: BEAM                                                                            
 LARGEST INCREMENT OF ROTATION     -1.305E-07   AT NODE        101   DOF  6
   INSTANCE: BEAM                                                                            
 LARGEST CORRECTION TO ROTATION    -4.133E-08   AT NODE        501   DOF  6
   INSTANCE: BEAM                                                                            
          THE MOMENT    EQUILIBRIUM RESPONSE WAS LINEAR IN THIS INCREMENT

  MAXIMUM HALF-INCREMENT FORCE RESIDUAL IS   0.330     AND OCCURS AT NODE        101 INSTANCE BEAM                                                                            
  MAXIMUM HALF-INCREMENT MOMENT RESIDUAL IS  -5.682E-02 AND OCCURS AT NODE        501 INSTANCE BEAM                                                                            
          TIME INCREMENT MAY NOW INCREASE TO    2.441E-06

 ITERATION SUMMARY FOR THE INCREMENT:   1 TOTAL ITERATIONS, OF WHICH
   0 ARE SEVERE DISCONTINUITY ITERATIONS AND  1 ARE EQUILIBRIUM ITERATIONS.

 TIME INCREMENT COMPLETED  1.953E-06,  FRACTION OF STEP COMPLETED  7.766E-04
 STEP TIME COMPLETED       7.766E-06,  TOTAL TIME COMPLETED        7.766E-06


  INCREMENT     7 STARTS. ATTEMPT NUMBER  1, TIME INCREMENT  2.441E-06

  NUMBER OF EQUATIONS =      3006     NUMBER OF RHS =    1
  NUMBER OF FLOATING PT. OPERATIONS =  8.47E+05

     CHECK POINT   START OF SOLVER    

     CHECK POINT  END OF SOLVER       

       ELAPSED USER TIME (SEC)      =   0.0000    
       ELAPSED SYSTEM TIME (SEC)    =   0.0000    
       ELAPSED TOTAL CPU TIME (SEC) =   0.0000    
       ELAPSED WALLCLOCK TIME (SEC) =          0

               CONVERGENCE CHECKS FOR EQUILIBRIUM ITERATION     1


 AVERAGE FORCE                      1.613E-02   TIME AVG. FORCE       1.088E-02
 LARGEST RESIDUAL FORCE            -5.551E-17   AT NODE        101   DOF  2
   INSTANCE: BEAM                                                                            
 LARGEST INCREMENT OF DISP.         4.239E-06   AT NODE        101   DOF  2
   INSTANCE: BEAM                                                                            
 LARGEST CORRECTION TO DISP.       -2.535E-06   AT NODE        101   DOF  2
   INSTANCE: BEAM                                                                            
          THE FORCE     EQUILIBRIUM RESPONSE WAS LINEAR IN THIS INCREMENT

 AVERAGE MOMENT                     1.599E-02   TIME AVG. MOMENT      5.385E-03
 LARGEST RESIDUAL MOMENT           -6.939E-17   AT NODE        500   DOF  6
   INSTANCE: BEAM                                                                            
 LARGEST INCREMENT OF ROTATION     -1.306E-07   AT NODE        501   DOF  6
   INSTANCE: BEAM                                                                            
 LARGEST CORRECTION TO ROTATION     2.913E-07   AT NODE        101   DOF  6
   INSTANCE: BEAM                                                                            
          THE MOMENT    EQUILIBRIUM RESPONSE WAS LINEAR IN THIS INCREMENT

  MAXIMUM HALF-INCREMENT FORCE RESIDUAL IS  -0.282     AND OCCURS AT NODE        101 INSTANCE BEAM                                                                            
  MAXIMUM HALF-INCREMENT MOMENT RESIDUAL IS   6.803E-02 AND OCCURS AT NODE        101 INSTANCE BEAM                                                                            
          TIME INCREMENT MAY NOW INCREASE TO    3.052E-06

 ITERATION SUMMARY FOR THE INCREMENT:   1 TOTAL ITERATIONS, OF WHICH
   0 ARE SEVERE DISCONTINUITY ITERATIONS AND  1 ARE EQUILIBRIUM ITERATIONS.

 TIME INCREMENT COMPLETED  2.441E-06,  FRACTION OF STEP COMPLETED  1.021E-03
 STEP TIME COMPLETED       1.021E-05,  TOTAL TIME COMPLETED        1.021E-05


  INCREMENT     8 STARTS. ATTEMPT NUMBER  1, TIME INCREMENT  3.052E-06

  NUMBER OF EQUATIONS =      3006     NUMBER OF RHS =    1
  NUMBER OF FLOATING PT. OPERATIONS =  8.47E+05

     CHECK POINT   START OF SOLVER    

     CHECK POINT  END OF SOLVER       

       ELAPSED USER TIME (SEC)      =   0.0000    
       ELAPSED SYSTEM TIME (SEC)    =   0.0000    
       ELAPSED TOTAL CPU TIME (SEC) =   0.0000    
       ELAPSED WALLCLOCK TIME (SEC) =          0

               CONVERGENCE CHECKS FOR EQUILIBRIUM ITERATION     1


 AVERAGE FORCE                      9.736E-03   TIME AVG. FORCE       1.074E-02
 LARGEST RESIDUAL FORCE            -1.318E-16   AT NODE        501   DOF  2
   INSTANCE: BEAM                                                                            
 LARGEST INCREMENT OF DISP.         1.419E-06   AT NODE        501   DOF  2
   INSTANCE: BEAM                                                                            
 LARGEST CORRECTION TO DISP.       -1.058E-05   AT NODE        101   DOF  2
   INSTANCE: BEAM                                                                            
          THE FORCE     EQUILIBRIUM RESPONSE WAS LINEAR IN THIS INCREMENT

 AVERAGE MOMENT                     1.724E-02   TIME AVG. MOMENT      6.867E-03
 LARGEST RESIDUAL MOMENT            9.714E-17   AT NODE        500   DOF  6
   INSTANCE: BEAM                                                                            
 LARGEST INCREMENT OF ROTATION      2.924E-07   AT NODE        101   DOF  6
   INSTANCE: BEAM                                                                            
 LARGEST CORRECTION TO ROTATION     2.889E-07   AT NODE        500   DOF  6
   INSTANCE: BEAM                                                                            
          THE MOMENT    EQUILIBRIUM RESPONSE WAS LINEAR IN THIS INCREMENT

  MAXIMUM HALF-INCREMENT FORCE RESIDUAL IS   6.487E-02 AND OCCURS AT NODE        501 INSTANCE BEAM                                                                            
  MAXIMUM HALF-INCREMENT MOMENT RESIDUAL IS   9.271E-02 AND OCCURS AT NODE        501 INSTANCE BEAM                                                                            
          TIME INCREMENT MAY NOW INCREASE TO    3.815E-06

 ITERATION SUMMARY FOR THE INCREMENT:   1 TOTAL ITERATIONS, OF WHICH
   0 ARE SEVERE DISCONTINUITY ITERATIONS AND  1 ARE EQUILIBRIUM ITERATIONS.

 TIME INCREMENT COMPLETED  3.052E-06,  FRACTION OF STEP COMPLETED  1.326E-03
 STEP TIME COMPLETED       1.326E-05,  TOTAL TIME COMPLETED        1.326E-05


  INCREMENT     9 STARTS. ATTEMPT NUMBER  1, TIME INCREMENT  3.815E-06

  NUMBER OF EQUATIONS =      3006     NUMBER OF RHS =    1
  NUMBER OF FLOATING PT. OPERATIONS =  8.47E+05

     CHECK POINT   START OF SOLVER    

     CHECK POINT  END OF SOLVER       

       ELAPSED USER TIME (SEC)      =   0.0000    
       ELAPSED SYSTEM TIME (SEC)    =   0.0000    
       ELAPSED TOTAL CPU TIME (SEC) =   0.0000    
       ELAPSED WALLCLOCK TIME (SEC) =          0

               CONVERGENCE CHECKS FOR EQUILIBRIUM ITERATION     1


 AVERAGE FORCE                      2.530E-02   TIME AVG. FORCE       1.236E-02
 LARGEST RESIDUAL FORCE             4.163E-16   AT NODE        501   DOF  2
   INSTANCE: BEAM                                                                            
 LARGEST INCREMENT OF DISP.        -1.356E-05   AT NODE        101   DOF  2
   INSTANCE: BEAM                                                                            
 LARGEST CORRECTION TO DISP.       -7.685E-06   AT NODE        501   DOF  2
   INSTANCE: BEAM                                                                            
          THE FORCE     EQUILIBRIUM RESPONSE WAS LINEAR IN THIS INCREMENT

 AVERAGE MOMENT                     3.137E-02   TIME AVG. MOMENT      9.590E-03
 LARGEST RESIDUAL MOMENT            3.691E-16   AT NODE        101   DOF  6
   INSTANCE: BEAM                                                                            
 LARGEST INCREMENT OF ROTATION     -3.444E-07   AT NODE        101   DOF  6
   INSTANCE: BEAM                                                                            
 LARGEST CORRECTION TO ROTATION    -1.286E-06   AT NODE        101   DOF  6
   INSTANCE: BEAM                                                                            
          THE MOMENT    EQUILIBRIUM RESPONSE WAS LINEAR IN THIS INCREMENT

  MAXIMUM HALF-INCREMENT FORCE RESIDUAL IS  -0.112     AND OCCURS AT NODE        501 INSTANCE BEAM                                                                            
  MAXIMUM HALF-INCREMENT MOMENT RESIDUAL IS   0.126     AND OCCURS AT NODE        499 INSTANCE BEAM                                                                            
          TIME INCREMENT MAY NOW INCREASE TO    4.768E-06

 ITERATION SUMMARY FOR THE INCREMENT:   1 TOTAL ITERATIONS, OF WHICH
   0 ARE SEVERE DISCONTINUITY ITERATIONS AND  1 ARE EQUILIBRIUM ITERATIONS.

 TIME INCREMENT COMPLETED  3.815E-06,  FRACTION OF STEP COMPLETED  1.707E-03
 STEP TIME COMPLETED       1.707E-05,  TOTAL TIME COMPLETED        1.707E-05


  INCREMENT    10 STARTS. ATTEMPT NUMBER  1, TIME INCREMENT  4.768E-06

  NUMBER OF EQUATIONS =      3006     NUMBER OF RHS =    1
  NUMBER OF FLOATING PT. OPERATIONS =  8.47E+05

     CHECK POINT   START OF SOLVER    

     CHECK POINT  END OF SOLVER       

       ELAPSED USER TIME (SEC)      =   0.0000    
       ELAPSED SYSTEM TIME (SEC)    =   0.0000    
       ELAPSED TOTAL CPU TIME (SEC) =   0.0000    
       ELAPSED WALLCLOCK TIME (SEC) =          0

               CONVERGENCE CHECKS FOR EQUILIBRIUM ITERATION     1


 AVERAGE FORCE                      3.113E-02   TIME AVG. FORCE       1.424E-02
 LARGEST RESIDUAL FORCE             5.829E-16   AT NODE        501   DOF  2
   INSTANCE: BEAM                                                                            
 LARGEST INCREMENT OF DISP.        -7.235E-06   AT NODE        501   DOF  2
   INSTANCE: BEAM                                                                            
 LARGEST CORRECTION TO DISP.        3.855E-05   AT NODE        101   DOF  2
   INSTANCE: BEAM                                                                            
          THE FORCE     EQUILIBRIUM RESPONSE WAS LINEAR IN THIS INCREMENT

 AVERAGE MOMENT                     4.151E-02   TIME AVG. MOMENT      1.278E-02
 LARGEST RESIDUAL MOMENT            6.661E-16   AT NODE        500   DOF  6
   INSTANCE: BEAM                                                                            
 LARGEST INCREMENT OF ROTATION     -1.016E-06   AT NODE        501   DOF  6
   INSTANCE: BEAM                                                                            
 LARGEST CORRECTION TO ROTATION     2.150E-06   AT NODE        101   DOF  6
   INSTANCE: BEAM                                                                            
          THE MOMENT    EQUILIBRIUM RESPONSE WAS LINEAR IN THIS INCREMENT

  MAXIMUM HALF-INCREMENT FORCE RESIDUAL IS   0.829     AND OCCURS AT NODE        101 INSTANCE BEAM                                                                            
  MAXIMUM HALF-INCREMENT MOMENT RESIDUAL IS  -0.439     AND OCCURS AT NODE        500 INSTANCE BEAM                                                                            
          TIME INCREMENT MAY NOW INCREASE TO    5.960E-06

 ITERATION SUMMARY FOR THE INCREMENT:   1 TOTAL ITERATIONS, OF WHICH
   0 ARE SEVERE DISCONTINUITY ITERATIONS AND  1 ARE EQUILIBRIUM ITERATIONS.

 TIME INCREMENT COMPLETED  4.768E-06,  FRACTION OF STEP COMPLETED  2.184E-03
 STEP TIME COMPLETED       2.184E-05,  TOTAL TIME COMPLETED        2.184E-05


  INCREMENT    11 STARTS. ATTEMPT NUMBER  1, TIME INCREMENT  5.960E-06

  NUMBER OF EQUATIONS =      3006     NUMBER OF RHS =    1
  NUMBER OF FLOATING PT. OPERATIONS =  8.47E+05

     CHECK POINT   START OF SOLVER    

     CHECK POINT  END OF SOLVER       

       ELAPSED USER TIME (SEC)      =   0.0000    
       ELAPSED SYSTEM TIME (SEC)    =   0.0000    
       ELAPSED TOTAL CPU TIME (SEC) =   0.0000    
       ELAPSED WALLCLOCK TIME (SEC) =          0

               CONVERGENCE CHECKS FOR EQUILIBRIUM ITERATION     1


 AVERAGE FORCE                      4.363E-02   TIME AVG. FORCE       1.691E-02
 LARGEST RESIDUAL FORCE            -2.220E-16   AT NODE        501   DOF  2
   INSTANCE: BEAM                                                                            
 LARGEST INCREMENT OF DISP.         4.263E-05   AT NODE        101   DOF  2
   INSTANCE: BEAM                                                                            
 LARGEST CORRECTION TO DISP.       -4.835E-05   AT NODE        101   DOF  2
   INSTANCE: BEAM                                                                            
          THE FORCE     EQUILIBRIUM RESPONSE WAS LINEAR IN THIS INCREMENT

 AVERAGE MOMENT                     7.239E-02   TIME AVG. MOMENT      1.820E-02
 LARGEST RESIDUAL MOMENT           -2.220E-15   AT NODE        501   DOF  6
   INSTANCE: BEAM                                                                            
 LARGEST INCREMENT OF ROTATION      3.623E-06   AT NODE        101   DOF  6
   INSTANCE: BEAM                                                                            
 LARGEST CORRECTION TO ROTATION     4.744E-06   AT NODE        500   DOF  6
   INSTANCE: BEAM                                                                            
          THE MOMENT    EQUILIBRIUM RESPONSE WAS LINEAR IN THIS INCREMENT

  MAXIMUM HALF-INCREMENT FORCE RESIDUAL IS  -0.983     AND OCCURS AT NODE        101 INSTANCE BEAM                                                                            
  MAXIMUM HALF-INCREMENT MOMENT RESIDUAL IS   0.912     AND OCCURS AT NODE        501 INSTANCE BEAM                                                                            
          TIME INCREMENT MAY NOW INCREASE TO    7.451E-06

 ITERATION SUMMARY FOR THE INCREMENT:   1 TOTAL ITERATIONS, OF WHICH
   0 ARE SEVERE DISCONTINUITY ITERATIONS AND  1 ARE EQUILIBRIUM ITERATIONS.

 TIME INCREMENT COMPLETED  5.960E-06,  FRACTION OF STEP COMPLETED  2.780E-03
 STEP TIME COMPLETED       2.780E-05,  TOTAL TIME COMPLETED        2.780E-05


  INCREMENT    12 STARTS. ATTEMPT NUMBER  1, TIME INCREMENT  7.451E-06

  NUMBER OF EQUATIONS =      3006     NUMBER OF RHS =    1
  NUMBER OF FLOATING PT. OPERATIONS =  8.47E+05

     CHECK POINT   START OF SOLVER    

     CHECK POINT  END OF SOLVER       

       ELAPSED USER TIME (SEC)      =   0.0000    
       ELAPSED SYSTEM TIME (SEC)    =   0.0000    
       ELAPSED TOTAL CPU TIME (SEC) =   0.0000    
       ELAPSED WALLCLOCK TIME (SEC) =          0

               CONVERGENCE CHECKS FOR EQUILIBRIUM ITERATION     1


 AVERAGE FORCE                      3.145E-02   TIME AVG. FORCE       1.812E-02
 LARGEST RESIDUAL FORCE             2.816E-16   AT NODE        499   DOF  1
   INSTANCE: BEAM                                                                            
 LARGEST INCREMENT OF DISP.         4.809E-05   AT NODE        501   DOF  2
   INSTANCE: BEAM                                                                            
 LARGEST CORRECTION TO DISP.       -5.600E-05   AT NODE        501   DOF  2
   INSTANCE: BEAM                                                                            
          THE FORCE     EQUILIBRIUM RESPONSE WAS LINEAR IN THIS INCREMENT

 AVERAGE MOMENT                     0.172       TIME AVG. MOMENT      3.100E-02
 LARGEST RESIDUAL MOMENT            1.920E-15   AT NODE        101   DOF  6
   INSTANCE: BEAM                                                                            
 LARGEST INCREMENT OF ROTATION      7.411E-06   AT NODE        500   DOF  6
   INSTANCE: BEAM                                                                            
 LARGEST CORRECTION TO ROTATION    -9.396E-06   AT NODE        101   DOF  6
   INSTANCE: BEAM                                                                            
          THE MOMENT    EQUILIBRIUM RESPONSE WAS LINEAR IN THIS INCREMENT

  MAXIMUM HALF-INCREMENT FORCE RESIDUAL IS   -1.11     AND OCCURS AT NODE        501 INSTANCE BEAM                                                                            
  MAXIMUM HALF-INCREMENT MOMENT RESIDUAL IS   -1.19     AND OCCURS AT NODE        501 INSTANCE BEAM                                                                            
          TIME INCREMENT MAY NOW INCREASE TO    9.313E-06

 ITERATION SUMMARY FOR THE INCREMENT:   1 TOTAL ITERATIONS, OF WHICH
   0 ARE SEVERE DISCONTINUITY ITERATIONS AND  1 ARE EQUILIBRIUM ITERATIONS.

 TIME INCREMENT COMPLETED  7.451E-06,  FRACTION OF STEP COMPLETED  3.525E-03
 STEP TIME COMPLETED       3.525E-05,  TOTAL TIME COMPLETED        3.525E-05


  INCREMENT    13 STARTS. ATTEMPT NUMBER  1, TIME INCREMENT  9.313E-06

  NUMBER OF EQUATIONS =      3006     NUMBER OF RHS =    1
  NUMBER OF FLOATING PT. OPERATIONS =  8.47E+05

     CHECK POINT   START OF SOLVER    

     CHECK POINT  END OF SOLVER       

       ELAPSED USER TIME (SEC)      =   0.0000    
       ELAPSED SYSTEM TIME (SEC)    =   0.0000    
       ELAPSED TOTAL CPU TIME (SEC) =   0.0000    
       ELAPSED WALLCLOCK TIME (SEC) =          0

               CONVERGENCE CHECKS FOR EQUILIBRIUM ITERATION     1


 AVERAGE FORCE                      3.653E-02   TIME AVG. FORCE       1.954E-02
 LARGEST RESIDUAL FORCE            -1.707E-15   AT NODE        501   DOF  2
   INSTANCE: BEAM                                                                            
 LARGEST INCREMENT OF DISP.         4.588E-05   AT NODE        500   DOF  2
   INSTANCE: BEAM                                                                            
 LARGEST CORRECTION TO DISP.        6.165E-05   AT NODE        101   DOF  2
   INSTANCE: BEAM                                                                            
          THE FORCE     EQUILIBRIUM RESPONSE WAS LINEAR IN THIS INCREMENT

 AVERAGE MOMENT                     0.184       TIME AVG. MOMENT      4.277E-02
 LARGEST RESIDUAL MOMENT            4.559E-15   AT NODE        501   DOF  6
   INSTANCE: BEAM                                                                            
 LARGEST INCREMENT OF ROTATION      5.729E-06   AT NODE        100   DOF  6
   INSTANCE: BEAM                                                                            
 LARGEST CORRECTION TO ROTATION    -1.432E-05   AT NODE        499   DOF  6
   INSTANCE: BEAM                                                                            
          THE MOMENT    EQUILIBRIUM RESPONSE WAS LINEAR IN THIS INCREMENT

  MAXIMUM HALF-INCREMENT FORCE RESIDUAL IS   0.969     AND OCCURS AT NODE        501 INSTANCE BEAM                                                                            
  MAXIMUM HALF-INCREMENT MOMENT RESIDUAL IS   -1.73     AND OCCURS AT NODE        499 INSTANCE BEAM                                                                            
          TIME INCREMENT MAY NOW INCREASE TO    1.164E-05

 ITERATION SUMMARY FOR THE INCREMENT:   1 TOTAL ITERATIONS, OF WHICH
   0 ARE SEVERE DISCONTINUITY ITERATIONS AND  1 ARE EQUILIBRIUM ITERATIONS.

 TIME INCREMENT COMPLETED  9.313E-06,  FRACTION OF STEP COMPLETED  4.457E-03
 STEP TIME COMPLETED       4.457E-05,  TOTAL TIME COMPLETED        4.457E-05


  INCREMENT    14 STARTS. ATTEMPT NUMBER  1, TIME INCREMENT  1.164E-05

  NUMBER OF EQUATIONS =      3006     NUMBER OF RHS =    1
  NUMBER OF FLOATING PT. OPERATIONS =  8.47E+05

     CHECK POINT   START OF SOLVER    

     CHECK POINT  END OF SOLVER       

       ELAPSED USER TIME (SEC)      =   0.0000    
       ELAPSED SYSTEM TIME (SEC)    =   0.0000    
       ELAPSED TOTAL CPU TIME (SEC) =   0.0000    
       ELAPSED WALLCLOCK TIME (SEC) =          0

               CONVERGENCE CHECKS FOR EQUILIBRIUM ITERATION     1


 AVERAGE FORCE                      3.464E-02   TIME AVG. FORCE       2.061E-02
 LARGEST RESIDUAL FORCE            -2.331E-15   AT NODE        498   DOF  2
   INSTANCE: BEAM                                                                            
 LARGEST INCREMENT OF DISP.         4.752E-05   AT NODE        498   DOF  2
   INSTANCE: BEAM                                                                            
 LARGEST CORRECTION TO DISP.       -1.035E-04   AT NODE        101   DOF  2
   INSTANCE: BEAM                                                                            
          THE FORCE     EQUILIBRIUM RESPONSE WAS LINEAR IN THIS INCREMENT

 AVERAGE MOMENT                     0.138       TIME AVG. MOMENT      4.960E-02
 LARGEST RESIDUAL MOMENT           -5.523E-15   AT NODE        501   DOF  6
   INSTANCE: BEAM                                                                            
 LARGEST INCREMENT OF ROTATION     -3.641E-06   AT NODE        499   DOF  6
   INSTANCE: BEAM                                                                            
 LARGEST CORRECTION TO ROTATION     1.950E-05   AT NODE        500   DOF  6
   INSTANCE: BEAM                                                                            
          THE MOMENT    EQUILIBRIUM RESPONSE WAS LINEAR IN THIS INCREMENT

  MAXIMUM HALF-INCREMENT FORCE RESIDUAL IS    1.04     AND OCCURS AT NODE        500 INSTANCE BEAM                                                                            
  MAXIMUM HALF-INCREMENT MOMENT RESIDUAL IS    2.52     AND OCCURS AT NODE        500 INSTANCE BEAM                                                                            
          TIME INCREMENT MAY NOW INCREASE TO    1.455E-05

 ITERATION SUMMARY FOR THE INCREMENT:   1 TOTAL ITERATIONS, OF WHICH
   0 ARE SEVERE DISCONTINUITY ITERATIONS AND  1 ARE EQUILIBRIUM ITERATIONS.

 TIME INCREMENT COMPLETED  1.164E-05,  FRACTION OF STEP COMPLETED  5.621E-03
 STEP TIME COMPLETED       5.621E-05,  TOTAL TIME COMPLETED        5.621E-05


  INCREMENT    15 STARTS. ATTEMPT NUMBER  1, TIME INCREMENT  1.455E-05

  NUMBER OF EQUATIONS =      3006     NUMBER OF RHS =    1
  NUMBER OF FLOATING PT. OPERATIONS =  8.47E+05

     CHECK POINT   START OF SOLVER    

     CHECK POINT  END OF SOLVER       

       ELAPSED USER TIME (SEC)      =   0.0000    
       ELAPSED SYSTEM TIME (SEC)    =   0.0000    
       ELAPSED TOTAL CPU TIME (SEC) =   0.0000    
       ELAPSED WALLCLOCK TIME (SEC) =          0

               CONVERGENCE CHECKS FOR EQUILIBRIUM ITERATION     1


 AVERAGE FORCE                      2.936E-02   TIME AVG. FORCE       2.120E-02
 LARGEST RESIDUAL FORCE            -2.459E-15   AT NODE        101   DOF  2
   INSTANCE: BEAM                                                                            
 LARGEST INCREMENT OF DISP.         5.125E-05   AT NODE        496   DOF  2
   INSTANCE: BEAM                                                                            
 LARGEST CORRECTION TO DISP.        1.286E-04   AT NODE        101   DOF  2
   INSTANCE: BEAM                                                                            
          THE FORCE     EQUILIBRIUM RESPONSE WAS LINEAR IN THIS INCREMENT

 AVERAGE MOMENT                     0.128       TIME AVG. MOMENT      5.482E-02
 LARGEST RESIDUAL MOMENT            8.993E-15   AT NODE        498   DOF  6
   INSTANCE: BEAM                                                                            
 LARGEST INCREMENT OF ROTATION      3.243E-06   AT NODE         99   DOF  6
   INSTANCE: BEAM                                                                            
 LARGEST CORRECTION TO ROTATION     1.790E-05   AT NODE        100   DOF  6
   INSTANCE: BEAM                                                                            
          THE MOMENT    EQUILIBRIUM RESPONSE WAS LINEAR IN THIS INCREMENT

  MAXIMUM HALF-INCREMENT FORCE RESIDUAL IS    1.27     AND OCCURS AT NODE        101 INSTANCE BEAM                                                                            
  MAXIMUM HALF-INCREMENT MOMENT RESIDUAL IS   -3.83     AND OCCURS AT NODE        500 INSTANCE BEAM                                                                            
          TIME INCREMENT MAY NOW INCREASE TO    1.819E-05

 ITERATION SUMMARY FOR THE INCREMENT:   1 TOTAL ITERATIONS, OF WHICH
   0 ARE SEVERE DISCONTINUITY ITERATIONS AND  1 ARE EQUILIBRIUM ITERATIONS.

 TIME INCREMENT COMPLETED  1.455E-05,  FRACTION OF STEP COMPLETED  7.076E-03
 STEP TIME COMPLETED       7.076E-05,  TOTAL TIME COMPLETED        7.076E-05


  INCREMENT    16 STARTS. ATTEMPT NUMBER  1, TIME INCREMENT  1.819E-05

  NUMBER OF EQUATIONS =      3006     NUMBER OF RHS =    1
  NUMBER OF FLOATING PT. OPERATIONS =  8.47E+05

     CHECK POINT   START OF SOLVER    

     CHECK POINT  END OF SOLVER       

       ELAPSED USER TIME (SEC)      =   0.0000    
       ELAPSED SYSTEM TIME (SEC)    =   0.0000    
       ELAPSED TOTAL CPU TIME (SEC) =   0.0000    
       ELAPSED WALLCLOCK TIME (SEC) =          0

               CONVERGENCE CHECKS FOR EQUILIBRIUM ITERATION     1


 AVERAGE FORCE                      2.523E-02   TIME AVG. FORCE       2.145E-02
 LARGEST RESIDUAL FORCE            -2.026E-15   AT NODE        495   DOF  2
   INSTANCE: BEAM                                                                            
 LARGEST INCREMENT OF DISP.         5.233E-05   AT NODE         99   DOF  2
   INSTANCE: BEAM                                                                            
 LARGEST CORRECTION TO DISP.        1.239E-04   AT NODE        501   DOF  2
   INSTANCE: BEAM                                                                            
          THE FORCE     EQUILIBRIUM RESPONSE WAS LINEAR IN THIS INCREMENT

 AVERAGE MOMENT                     0.129       TIME AVG. MOMENT      5.945E-02
 LARGEST RESIDUAL MOMENT            1.205E-14   AT NODE        499   DOF  6
   INSTANCE: BEAM                                                                            
 LARGEST INCREMENT OF ROTATION      4.585E-06   AT NODE        491   DOF  6
   INSTANCE: BEAM                                                                            
 LARGEST CORRECTION TO ROTATION    -2.601E-05   AT NODE        498   DOF  6
   INSTANCE: BEAM                                                                            
          THE MOMENT    EQUILIBRIUM RESPONSE WAS LINEAR IN THIS INCREMENT

  MAXIMUM HALF-INCREMENT FORCE RESIDUAL IS    2.42     AND OCCURS AT NODE        501 INSTANCE BEAM                                                                            
  MAXIMUM HALF-INCREMENT MOMENT RESIDUAL IS    5.03     AND OCCURS AT NODE        500 INSTANCE BEAM                                                                            
          TIME INCREMENT MAY NOW INCREASE TO    2.274E-05

 ITERATION SUMMARY FOR THE INCREMENT:   1 TOTAL ITERATIONS, OF WHICH
   0 ARE SEVERE DISCONTINUITY ITERATIONS AND  1 ARE EQUILIBRIUM ITERATIONS.

 TIME INCREMENT COMPLETED  1.819E-05,  FRACTION OF STEP COMPLETED  8.895E-03
 STEP TIME COMPLETED       8.895E-05,  TOTAL TIME COMPLETED        8.895E-05


  INCREMENT    17 STARTS. ATTEMPT NUMBER  1, TIME INCREMENT  2.274E-05

  NUMBER OF EQUATIONS =      3006     NUMBER OF RHS =    1
  NUMBER OF FLOATING PT. OPERATIONS =  8.47E+05

     CHECK POINT   START OF SOLVER    

     CHECK POINT  END OF SOLVER       

       ELAPSED USER TIME (SEC)      =   0.0000    
       ELAPSED SYSTEM TIME (SEC)    =   0.0000    
       ELAPSED TOTAL CPU TIME (SEC) =   0.0000    
       ELAPSED WALLCLOCK TIME (SEC) =          0

               CONVERGENCE CHECKS FOR EQUILIBRIUM ITERATION     1


 AVERAGE FORCE                      2.508E-02   TIME AVG. FORCE       2.166E-02
 LARGEST RESIDUAL FORCE            -2.616E-15   AT NODE        492   DOF  2
   INSTANCE: BEAM                                                                            
 LARGEST INCREMENT OF DISP.         5.162E-05   AT NODE        491   DOF  2
   INSTANCE: BEAM                                                                            
 LARGEST CORRECTION TO DISP.       -1.441E-04   AT NODE        501   DOF  2
   INSTANCE: BEAM                                                                            
          THE FORCE     EQUILIBRIUM RESPONSE WAS LINEAR IN THIS INCREMENT

 AVERAGE MOMENT                     0.121       TIME AVG. MOMENT      6.308E-02
 LARGEST RESIDUAL MOMENT           -1.027E-14   AT NODE        498   DOF  6
   INSTANCE: BEAM                                                                            
 LARGEST INCREMENT OF ROTATION      4.200E-06   AT NODE        487   DOF  6
   INSTANCE: BEAM                                                                            
 LARGEST CORRECTION TO ROTATION     2.934E-05   AT NODE        498   DOF  6
   INSTANCE: BEAM                                                                            
          THE MOMENT    EQUILIBRIUM RESPONSE WAS LINEAR IN THIS INCREMENT

  MAXIMUM HALF-INCREMENT FORCE RESIDUAL IS   -4.57     AND OCCURS AT NODE        501 INSTANCE BEAM                                                                            
  MAXIMUM HALF-INCREMENT MOMENT RESIDUAL IS   -6.17     AND OCCURS AT NODE        500 INSTANCE BEAM                                                                            
          TIME INCREMENT MAY NOW INCREASE TO    2.842E-05

 ITERATION SUMMARY FOR THE INCREMENT:   1 TOTAL ITERATIONS, OF WHICH
   0 ARE SEVERE DISCONTINUITY ITERATIONS AND  1 ARE EQUILIBRIUM ITERATIONS.

 TIME INCREMENT COMPLETED  2.274E-05,  FRACTION OF STEP COMPLETED  1.117E-02
 STEP TIME COMPLETED       1.117E-04,  TOTAL TIME COMPLETED        1.117E-04


  INCREMENT    18 STARTS. ATTEMPT NUMBER  1, TIME INCREMENT  2.842E-05

  NUMBER OF EQUATIONS =      3006     NUMBER OF RHS =    1
  NUMBER OF FLOATING PT. OPERATIONS =  8.47E+05

     CHECK POINT   START OF SOLVER    

     CHECK POINT  END OF SOLVER       

       ELAPSED USER TIME (SEC)      =   0.0000    
       ELAPSED SYSTEM TIME (SEC)    =   0.0000    
       ELAPSED TOTAL CPU TIME (SEC) =   0.0000    
       ELAPSED WALLCLOCK TIME (SEC) =          0

               CONVERGENCE CHECKS FOR EQUILIBRIUM ITERATION     1


 AVERAGE FORCE                      2.202E-02   TIME AVG. FORCE       2.168E-02
 LARGEST RESIDUAL FORCE             2.678E-15   AT NODE        500   DOF  2
   INSTANCE: BEAM                                                                            
 LARGEST INCREMENT OF DISP.         5.046E-05   AT NODE        488   DOF  2
   INSTANCE: BEAM                                                                            
 LARGEST CORRECTION TO DISP.        1.480E-04   AT NODE        501   DOF  2
   INSTANCE: BEAM                                                                            
          THE FORCE     EQUILIBRIUM RESPONSE WAS LINEAR IN THIS INCREMENT

 AVERAGE MOMENT                     0.129       TIME AVG. MOMENT      6.674E-02
 LARGEST RESIDUAL MOMENT            1.787E-14   AT NODE        499   DOF  6
   INSTANCE: BEAM                                                                            
 LARGEST INCREMENT OF ROTATION      4.484E-06   AT NODE        484   DOF  6
   INSTANCE: BEAM                                                                            
 LARGEST CORRECTION TO ROTATION    -2.885E-05   AT NODE        499   DOF  6
   INSTANCE: BEAM                                                                            
          THE MOMENT    EQUILIBRIUM RESPONSE WAS LINEAR IN THIS INCREMENT

  MAXIMUM HALF-INCREMENT FORCE RESIDUAL IS    7.32     AND OCCURS AT NODE        501 INSTANCE BEAM                                                                            
  MAXIMUM HALF-INCREMENT MOMENT RESIDUAL IS   -8.42     AND OCCURS AT NODE        498 INSTANCE BEAM                                                                            
          TIME INCREMENT MAY NOW INCREASE TO    3.553E-05

 ITERATION SUMMARY FOR THE INCREMENT:   1 TOTAL ITERATIONS, OF WHICH
   0 ARE SEVERE DISCONTINUITY ITERATIONS AND  1 ARE EQUILIBRIUM ITERATIONS.

 TIME INCREMENT COMPLETED  2.842E-05,  FRACTION OF STEP COMPLETED  1.401E-02
 STEP TIME COMPLETED       1.401E-04,  TOTAL TIME COMPLETED        1.401E-04


  INCREMENT    19 STARTS. ATTEMPT NUMBER  1, TIME INCREMENT  3.553E-05

  NUMBER OF EQUATIONS =      3006     NUMBER OF RHS =    1
  NUMBER OF FLOATING PT. OPERATIONS =  8.47E+05

     CHECK POINT   START OF SOLVER    

     CHECK POINT  END OF SOLVER       

       ELAPSED USER TIME (SEC)      =   0.0000    
       ELAPSED SYSTEM TIME (SEC)    =   0.0000    
       ELAPSED TOTAL CPU TIME (SEC) =   0.0000    
       ELAPSED WALLCLOCK TIME (SEC) =          0

               CONVERGENCE CHECKS FOR EQUILIBRIUM ITERATION     1


 AVERAGE FORCE                      1.904E-02   TIME AVG. FORCE       2.154E-02
 LARGEST RESIDUAL FORCE             6.826E-15   AT NODE        501   DOF  2
   INSTANCE: BEAM                                                                            
 LARGEST INCREMENT OF DISP.         4.942E-05   AT NODE        493   DOF  2
   INSTANCE: BEAM                                                                            
 LARGEST CORRECTION TO DISP.        1.451E-04   AT NODE        500   DOF  2
   INSTANCE: BEAM                                                                            
          THE FORCE     EQUILIBRIUM RESPONSE WAS LINEAR IN THIS INCREMENT

 AVERAGE MOMENT                     0.123       TIME AVG. MOMENT      6.969E-02
 LARGEST RESIDUAL MOMENT           -7.383E-15   AT NODE        499   DOF  6
   INSTANCE: BEAM                                                                            
 LARGEST INCREMENT OF ROTATION      4.397E-06   AT NODE        479   DOF  6
   INSTANCE: BEAM                                                                            
 LARGEST CORRECTION TO ROTATION     2.991E-05   AT NODE        499   DOF  6
   INSTANCE: BEAM                                                                            
          THE MOMENT    EQUILIBRIUM RESPONSE WAS LINEAR IN THIS INCREMENT

  MAXIMUM HALF-INCREMENT FORCE RESIDUAL IS   -10.8     AND OCCURS AT NODE        501 INSTANCE BEAM                                                                            
  MAXIMUM HALF-INCREMENT MOMENT RESIDUAL IS    11.9     AND OCCURS AT NODE        498 INSTANCE BEAM                                                                            
          TIME INCREMENT MAY NOW INCREASE TO    4.441E-05

 ITERATION SUMMARY FOR THE INCREMENT:   1 TOTAL ITERATIONS, OF WHICH
   0 ARE SEVERE DISCONTINUITY ITERATIONS AND  1 ARE EQUILIBRIUM ITERATIONS.

 TIME INCREMENT COMPLETED  3.553E-05,  FRACTION OF STEP COMPLETED  1.756E-02
 STEP TIME COMPLETED       1.756E-04,  TOTAL TIME COMPLETED        1.756E-04


  INCREMENT    20 STARTS. ATTEMPT NUMBER  1, TIME INCREMENT  4.441E-05

  NUMBER OF EQUATIONS =      3006     NUMBER OF RHS =    1
  NUMBER OF FLOATING PT. OPERATIONS =  8.47E+05

     CHECK POINT   START OF SOLVER    

     CHECK POINT  END OF SOLVER       

       ELAPSED USER TIME (SEC)      =   0.0000    
       ELAPSED SYSTEM TIME (SEC)    =   0.0000    
       ELAPSED TOTAL CPU TIME (SEC) =   0.0000    
       ELAPSED WALLCLOCK TIME (SEC) =          0

               CONVERGENCE CHECKS FOR EQUILIBRIUM ITERATION     1


 AVERAGE FORCE                      1.700E-02   TIME AVG. FORCE       2.132E-02
 LARGEST RESIDUAL FORCE            -7.081E-15   AT NODE        501   DOF  2
   INSTANCE: BEAM                                                                            
 LARGEST INCREMENT OF DISP.        -5.527E-05   AT NODE        469   DOF  2
   INSTANCE: BEAM                                                                            
 LARGEST CORRECTION TO DISP.       -1.861E-04   AT NODE        500   DOF  2
   INSTANCE: BEAM                                                                            
          THE FORCE     EQUILIBRIUM RESPONSE WAS LINEAR IN THIS INCREMENT

 AVERAGE MOMENT                     0.114       TIME AVG. MOMENT      7.190E-02
 LARGEST RESIDUAL MOMENT            1.166E-14   AT NODE        500   DOF  6
   INSTANCE: BEAM                                                                            
 LARGEST INCREMENT OF ROTATION      4.433E-06   AT NODE        474   DOF  6
   INSTANCE: BEAM                                                                            
 LARGEST CORRECTION TO ROTATION    -3.027E-05   AT NODE        499   DOF  6
   INSTANCE: BEAM                                                                            
          THE MOMENT    EQUILIBRIUM RESPONSE WAS LINEAR IN THIS INCREMENT

  MAXIMUM HALF-INCREMENT FORCE RESIDUAL IS    15.3     AND OCCURS AT NODE        501 INSTANCE BEAM                                                                            
  MAXIMUM HALF-INCREMENT MOMENT RESIDUAL IS   -16.0     AND OCCURS AT NODE        498 INSTANCE BEAM                                                                            
          TIME INCREMENT MAY NOW INCREASE TO    5.551E-05

 ITERATION SUMMARY FOR THE INCREMENT:   1 TOTAL ITERATIONS, OF WHICH
   0 ARE SEVERE DISCONTINUITY ITERATIONS AND  1 ARE EQUILIBRIUM ITERATIONS.

 TIME INCREMENT COMPLETED  4.441E-05,  FRACTION OF STEP COMPLETED  2.200E-02
 STEP TIME COMPLETED       2.200E-04,  TOTAL TIME COMPLETED        2.200E-04


  INCREMENT    21 STARTS. ATTEMPT NUMBER  1, TIME INCREMENT  5.551E-05

  NUMBER OF EQUATIONS =      3006     NUMBER OF RHS =    1
  NUMBER OF FLOATING PT. OPERATIONS =  8.47E+05

     CHECK POINT   START OF SOLVER    

     CHECK POINT  END OF SOLVER       

       ELAPSED USER TIME (SEC)      =   0.0000    
       ELAPSED SYSTEM TIME (SEC)    =   0.0000    
       ELAPSED TOTAL CPU TIME (SEC) =   0.0000    
       ELAPSED WALLCLOCK TIME (SEC) =          0

               CONVERGENCE CHECKS FOR EQUILIBRIUM ITERATION     1


 AVERAGE FORCE                      1.462E-02   TIME AVG. FORCE       2.100E-02
 LARGEST RESIDUAL FORCE             4.198E-15   AT NODE        501   DOF  2
   INSTANCE: BEAM                                                                            
 LARGEST INCREMENT OF DISP.        -6.556E-05   AT NODE        463   DOF  2
   INSTANCE: BEAM                                                                            
 LARGEST CORRECTION TO DISP.        2.297E-04   AT NODE        500   DOF  2
   INSTANCE: BEAM                                                                            
          THE FORCE     EQUILIBRIUM RESPONSE WAS LINEAR IN THIS INCREMENT

 AVERAGE MOMENT                     0.106       TIME AVG. MOMENT      7.351E-02
 LARGEST RESIDUAL MOMENT           -2.498E-14   AT NODE        499   DOF  6
   INSTANCE: BEAM                                                                            
 LARGEST INCREMENT OF ROTATION      4.447E-06   AT NODE        469   DOF  6
   INSTANCE: BEAM                                                                            
 LARGEST CORRECTION TO ROTATION    -4.012E-05   AT NODE        497   DOF  6
   INSTANCE: BEAM                                                                            
          THE MOMENT    EQUILIBRIUM RESPONSE WAS LINEAR IN THIS INCREMENT

  MAXIMUM HALF-INCREMENT FORCE RESIDUAL IS   -20.9     AND OCCURS AT NODE        501 INSTANCE BEAM                                                                            
  MAXIMUM HALF-INCREMENT MOMENT RESIDUAL IS    21.0     AND OCCURS AT NODE        498 INSTANCE BEAM                                                                            

 ITERATION SUMMARY FOR THE INCREMENT:   1 TOTAL ITERATIONS, OF WHICH
   0 ARE SEVERE DISCONTINUITY ITERATIONS AND  1 ARE EQUILIBRIUM ITERATIONS.

 TIME INCREMENT COMPLETED  5.551E-05,  FRACTION OF STEP COMPLETED  2.756E-02
 STEP TIME COMPLETED       2.756E-04,  TOTAL TIME COMPLETED        2.756E-04


  INCREMENT    22 STARTS. ATTEMPT NUMBER  1, TIME INCREMENT  5.551E-05

  NUMBER OF EQUATIONS =      3006     NUMBER OF RHS =    1
  NUMBER OF FLOATING PT. OPERATIONS =  8.47E+05

     CHECK POINT   START OF SOLVER    

     CHECK POINT  END OF SOLVER       

       ELAPSED USER TIME (SEC)      =   0.0000    
       ELAPSED SYSTEM TIME (SEC)    =   0.0000    
       ELAPSED TOTAL CPU TIME (SEC) =   0.0000    
       ELAPSED WALLCLOCK TIME (SEC) =          0

               CONVERGENCE CHECKS FOR EQUILIBRIUM ITERATION     1


 AVERAGE FORCE                      1.296E-02   TIME AVG. FORCE       2.063E-02
 LARGEST RESIDUAL FORCE            -4.569E-15   AT NODE        501   DOF  2
   INSTANCE: BEAM                                                                            
 LARGEST INCREMENT OF DISP.        -6.639E-05   AT NODE        457   DOF  2
   INSTANCE: BEAM                                                                            
 LARGEST CORRECTION TO DISP.       -1.858E-04   AT NODE        500   DOF  2
   INSTANCE: BEAM                                                                            
          THE FORCE     EQUILIBRIUM RESPONSE WAS LINEAR IN THIS INCREMENT

 AVERAGE MOMENT                     0.101       TIME AVG. MOMENT      7.476E-02
 LARGEST RESIDUAL MOMENT           -1.363E-14   AT NODE        497   DOF  6
   INSTANCE: BEAM                                                                            
 LARGEST INCREMENT OF ROTATION      3.903E-06   AT NODE        463   DOF  6
   INSTANCE: BEAM                                                                            
 LARGEST CORRECTION TO ROTATION     3.747E-05   AT NODE        497   DOF  6
   INSTANCE: BEAM                                                                            
          THE MOMENT    EQUILIBRIUM RESPONSE WAS LINEAR IN THIS INCREMENT

  MAXIMUM HALF-INCREMENT FORCE RESIDUAL IS    18.2     AND OCCURS AT NODE        501 INSTANCE BEAM                                                                            
  MAXIMUM HALF-INCREMENT MOMENT RESIDUAL IS   -18.6     AND OCCURS AT NODE        499 INSTANCE BEAM                                                                            

 ITERATION SUMMARY FOR THE INCREMENT:   1 TOTAL ITERATIONS, OF WHICH
   0 ARE SEVERE DISCONTINUITY ITERATIONS AND  1 ARE EQUILIBRIUM ITERATIONS.

 TIME INCREMENT COMPLETED  5.551E-05,  FRACTION OF STEP COMPLETED  3.311E-02
 STEP TIME COMPLETED       3.311E-04,  TOTAL TIME COMPLETED        3.311E-04


  INCREMENT    23 STARTS. ATTEMPT NUMBER  1, TIME INCREMENT  5.551E-05

  NUMBER OF EQUATIONS =      3006     NUMBER OF RHS =    1
  NUMBER OF FLOATING PT. OPERATIONS =  8.47E+05

     CHECK POINT   START OF SOLVER    

     CHECK POINT  END OF SOLVER       

       ELAPSED USER TIME (SEC)      =   0.0000    
       ELAPSED SYSTEM TIME (SEC)    =   0.0000    
       ELAPSED TOTAL CPU TIME (SEC) =   0.0000    
       ELAPSED WALLCLOCK TIME (SEC) =          0

               CONVERGENCE CHECKS FOR EQUILIBRIUM ITERATION     1


 AVERAGE FORCE                      1.138E-02   TIME AVG. FORCE       2.023E-02
 LARGEST RESIDUAL FORCE            -4.538E-15   AT NODE        456   DOF  2
   INSTANCE: BEAM                                                                            
 LARGEST INCREMENT OF DISP.        -7.385E-05   AT NODE        451   DOF  2
   INSTANCE: BEAM                                                                            
 LARGEST CORRECTION TO DISP.        1.727E-04   AT NODE        500   DOF  2
   INSTANCE: BEAM                                                                            
          THE FORCE     EQUILIBRIUM RESPONSE WAS LINEAR IN THIS INCREMENT

 AVERAGE MOMENT                     8.970E-02   TIME AVG. MOMENT      7.541E-02
 LARGEST RESIDUAL MOMENT            1.792E-14   AT NODE        497   DOF  6
   INSTANCE: BEAM                                                                            
 LARGEST INCREMENT OF ROTATION     -3.837E-06   AT NODE        445   DOF  6
   INSTANCE: BEAM                                                                            
 LARGEST CORRECTION TO ROTATION    -3.666E-05   AT NODE        497   DOF  6
   INSTANCE: BEAM                                                                            
          THE MOMENT    EQUILIBRIUM RESPONSE WAS LINEAR IN THIS INCREMENT

  MAXIMUM HALF-INCREMENT FORCE RESIDUAL IS   -15.6     AND OCCURS AT NODE        501 INSTANCE BEAM                                                                            
  MAXIMUM HALF-INCREMENT MOMENT RESIDUAL IS    18.1     AND OCCURS AT NODE        499 INSTANCE BEAM                                                                            

 ITERATION SUMMARY FOR THE INCREMENT:   1 TOTAL ITERATIONS, OF WHICH
   0 ARE SEVERE DISCONTINUITY ITERATIONS AND  1 ARE EQUILIBRIUM ITERATIONS.

 TIME INCREMENT COMPLETED  5.551E-05,  FRACTION OF STEP COMPLETED  3.866E-02
 STEP TIME COMPLETED       3.866E-04,  TOTAL TIME COMPLETED        3.866E-04


  INCREMENT    24 STARTS. ATTEMPT NUMBER  1, TIME INCREMENT  5.551E-05

  NUMBER OF EQUATIONS =      3006     NUMBER OF RHS =    1
  NUMBER OF FLOATING PT. OPERATIONS =  8.47E+05

     CHECK POINT   START OF SOLVER    

     CHECK POINT  END OF SOLVER       

       ELAPSED USER TIME (SEC)      =   0.0000    
       ELAPSED SYSTEM TIME (SEC)    =   0.0000    
       ELAPSED TOTAL CPU TIME (SEC) =   0.0000    
       ELAPSED WALLCLOCK TIME (SEC) =          0

               CONVERGENCE CHECKS FOR EQUILIBRIUM ITERATION     1


 AVERAGE FORCE                      1.054E-02   TIME AVG. FORCE       1.983E-02
 LARGEST RESIDUAL FORCE             5.714E-15   AT NODE        484   DOF  2
   INSTANCE: BEAM                                                                            
 LARGEST INCREMENT OF DISP.        -7.288E-05   AT NODE         87   DOF  2
   INSTANCE: BEAM                                                                            
 LARGEST CORRECTION TO DISP.       -1.536E-04   AT NODE        500   DOF  2
   INSTANCE: BEAM                                                                            
          THE FORCE     EQUILIBRIUM RESPONSE WAS LINEAR IN THIS INCREMENT

 AVERAGE MOMENT                     8.521E-02   TIME AVG. MOMENT      7.581E-02
 LARGEST RESIDUAL MOMENT           -1.177E-14   AT NODE        501   DOF  6
   INSTANCE: BEAM                                                                            
 LARGEST INCREMENT OF ROTATION     -3.737E-06   AT NODE        439   DOF  6
   INSTANCE: BEAM                                                                            
 LARGEST CORRECTION TO ROTATION     3.434E-05   AT NODE        497   DOF  6
   INSTANCE: BEAM                                                                            
          THE MOMENT    EQUILIBRIUM RESPONSE WAS LINEAR IN THIS INCREMENT

  MAXIMUM HALF-INCREMENT FORCE RESIDUAL IS    13.2     AND OCCURS AT NODE        501 INSTANCE BEAM                                                                            
  MAXIMUM HALF-INCREMENT MOMENT RESIDUAL IS   -17.3     AND OCCURS AT NODE        499 INSTANCE BEAM                                                                            

 ITERATION SUMMARY FOR THE INCREMENT:   1 TOTAL ITERATIONS, OF WHICH
   0 ARE SEVERE DISCONTINUITY ITERATIONS AND  1 ARE EQUILIBRIUM ITERATIONS.

 TIME INCREMENT COMPLETED  5.551E-05,  FRACTION OF STEP COMPLETED  4.421E-02
 STEP TIME COMPLETED       4.421E-04,  TOTAL TIME COMPLETED        4.421E-04


  INCREMENT    25 STARTS. ATTEMPT NUMBER  1, TIME INCREMENT  5.551E-05

  NUMBER OF EQUATIONS =      3006     NUMBER OF RHS =    1
  NUMBER OF FLOATING PT. OPERATIONS =  8.47E+05

     CHECK POINT   START OF SOLVER    

     CHECK POINT  END OF SOLVER       

       ELAPSED USER TIME (SEC)      =   0.0000    
       ELAPSED SYSTEM TIME (SEC)    =   0.0000    
       ELAPSED TOTAL CPU TIME (SEC) =   0.0000    
       ELAPSED WALLCLOCK TIME (SEC) =          0

               CONVERGENCE CHECKS FOR EQUILIBRIUM ITERATION     1


 AVERAGE FORCE                      9.583E-03   TIME AVG. FORCE       1.942E-02
 LARGEST RESIDUAL FORCE            -7.983E-15   AT NODE        498   DOF  2
   INSTANCE: BEAM                                                                            
 LARGEST INCREMENT OF DISP.        -6.689E-05   AT NODE        440   DOF  2
   INSTANCE: BEAM                                                                            
 LARGEST CORRECTION TO DISP.        1.345E-04   AT NODE        500   DOF  2
   INSTANCE: BEAM                                                                            
          THE FORCE     EQUILIBRIUM RESPONSE WAS LINEAR IN THIS INCREMENT

 AVERAGE MOMENT                     8.358E-02   TIME AVG. MOMENT      7.613E-02
 LARGEST RESIDUAL MOMENT            1.221E-14   AT NODE        100   DOF  6
   INSTANCE: BEAM                                                                            
 LARGEST INCREMENT OF ROTATION     -3.634E-06   AT NODE        433   DOF  6
   INSTANCE: BEAM                                                                            
 LARGEST CORRECTION TO ROTATION    -3.103E-05   AT NODE        497   DOF  6
   INSTANCE: BEAM                                                                            
          THE MOMENT    EQUILIBRIUM RESPONSE WAS LINEAR IN THIS INCREMENT

  MAXIMUM HALF-INCREMENT FORCE RESIDUAL IS   -11.0     AND OCCURS AT NODE        501 INSTANCE BEAM                                                                            
  MAXIMUM HALF-INCREMENT MOMENT RESIDUAL IS    16.4     AND OCCURS AT NODE        499 INSTANCE BEAM                                                                            

 ITERATION SUMMARY FOR THE INCREMENT:   1 TOTAL ITERATIONS, OF WHICH
   0 ARE SEVERE DISCONTINUITY ITERATIONS AND  1 ARE EQUILIBRIUM ITERATIONS.

 TIME INCREMENT COMPLETED  5.551E-05,  FRACTION OF STEP COMPLETED  4.976E-02
 STEP TIME COMPLETED       4.976E-04,  TOTAL TIME COMPLETED        4.976E-04


  INCREMENT    26 STARTS. ATTEMPT NUMBER  1, TIME INCREMENT  5.551E-05

  NUMBER OF EQUATIONS =      3006     NUMBER OF RHS =    1
  NUMBER OF FLOATING PT. OPERATIONS =  8.47E+05

     CHECK POINT   START OF SOLVER    

     CHECK POINT  END OF SOLVER       

       ELAPSED USER TIME (SEC)      =   0.0000    
       ELAPSED SYSTEM TIME (SEC)    =   0.0000    
       ELAPSED TOTAL CPU TIME (SEC) =   0.0000    
       ELAPSED WALLCLOCK TIME (SEC) =          0

               CONVERGENCE CHECKS FOR EQUILIBRIUM ITERATION     1


 AVERAGE FORCE                      8.662E-03   TIME AVG. FORCE       1.900E-02
 LARGEST RESIDUAL FORCE             9.819E-15   AT NODE        501   DOF  2
   INSTANCE: BEAM                                                                            
 LARGEST INCREMENT OF DISP.        -5.771E-05   AT NODE         84   DOF  2
   INSTANCE: BEAM                                                                            
 LARGEST CORRECTION TO DISP.       -1.142E-04   AT NODE        500   DOF  2
   INSTANCE: BEAM                                                                            
          THE FORCE     EQUILIBRIUM RESPONSE WAS LINEAR IN THIS INCREMENT

 AVERAGE MOMENT                     7.773E-02   TIME AVG. MOMENT      7.619E-02
 LARGEST RESIDUAL MOMENT            1.761E-14   AT NODE        499   DOF  6
   INSTANCE: BEAM                                                                            
 LARGEST INCREMENT OF ROTATION     -3.614E-06   AT NODE        426   DOF  6
   INSTANCE: BEAM                                                                            
 LARGEST CORRECTION TO ROTATION     2.820E-05   AT NODE        100   DOF  6
   INSTANCE: BEAM                                                                            
          THE MOMENT    EQUILIBRIUM RESPONSE WAS LINEAR IN THIS INCREMENT

  MAXIMUM HALF-INCREMENT FORCE RESIDUAL IS    9.06     AND OCCURS AT NODE        501 INSTANCE BEAM                                                                            
  MAXIMUM HALF-INCREMENT MOMENT RESIDUAL IS   -15.3     AND OCCURS AT NODE        499 INSTANCE BEAM                                                                            
          TIME INCREMENT MAY NOW INCREASE TO    6.939E-05

 ITERATION SUMMARY FOR THE INCREMENT:   1 TOTAL ITERATIONS, OF WHICH
   0 ARE SEVERE DISCONTINUITY ITERATIONS AND  1 ARE EQUILIBRIUM ITERATIONS.

 TIME INCREMENT COMPLETED  5.551E-05,  FRACTION OF STEP COMPLETED  5.531E-02
 STEP TIME COMPLETED       5.531E-04,  TOTAL TIME COMPLETED        5.531E-04


  INCREMENT    27 STARTS. ATTEMPT NUMBER  1, TIME INCREMENT  6.939E-05

  NUMBER OF EQUATIONS =      3006     NUMBER OF RHS =    1
  NUMBER OF FLOATING PT. OPERATIONS =  8.47E+05

     CHECK POINT   START OF SOLVER    

     CHECK POINT  END OF SOLVER       

       ELAPSED USER TIME (SEC)      =   0.0000    
       ELAPSED SYSTEM TIME (SEC)    =   0.0000    
       ELAPSED TOTAL CPU TIME (SEC) =   0.0000    
       ELAPSED WALLCLOCK TIME (SEC) =          0

               CONVERGENCE CHECKS FOR EQUILIBRIUM ITERATION     1


 AVERAGE FORCE                      7.875E-03   TIME AVG. FORCE       1.859E-02
 LARGEST RESIDUAL FORCE            -4.677E-15   AT NODE        499   DOF  2
   INSTANCE: BEAM                                                                            
 LARGEST INCREMENT OF DISP.        -5.867E-05   AT NODE        428   DOF  2
   INSTANCE: BEAM                                                                            
 LARGEST CORRECTION TO DISP.        1.339E-04   AT NODE        500   DOF  2
   INSTANCE: BEAM                                                                            
          THE FORCE     EQUILIBRIUM RESPONSE WAS LINEAR IN THIS INCREMENT

 AVERAGE MOMENT                     7.194E-02   TIME AVG. MOMENT      7.603E-02
 LARGEST RESIDUAL MOMENT            2.338E-14   AT NODE        497   DOF  6
   INSTANCE: BEAM                                                                            
 LARGEST INCREMENT OF ROTATION     -4.059E-06   AT NODE        419   DOF  6
   INSTANCE: BEAM                                                                            
 LARGEST CORRECTION TO ROTATION    -3.649E-05   AT NODE        100   DOF  6
   INSTANCE: BEAM                                                                            
          THE MOMENT    EQUILIBRIUM RESPONSE WAS LINEAR IN THIS INCREMENT

  MAXIMUM HALF-INCREMENT FORCE RESIDUAL IS    11.6     AND OCCURS AT NODE        500 INSTANCE BEAM                                                                            
  MAXIMUM HALF-INCREMENT MOMENT RESIDUAL IS    21.4     AND OCCURS AT NODE        499 INSTANCE BEAM                                                                            
          TIME INCREMENT MAY NOW INCREASE TO    8.439E-05

 ITERATION SUMMARY FOR THE INCREMENT:   1 TOTAL ITERATIONS, OF WHICH
   0 ARE SEVERE DISCONTINUITY ITERATIONS AND  1 ARE EQUILIBRIUM ITERATIONS.

 TIME INCREMENT COMPLETED  6.939E-05,  FRACTION OF STEP COMPLETED  6.225E-02
 STEP TIME COMPLETED       6.225E-04,  TOTAL TIME COMPLETED        6.225E-04


  INCREMENT    28 STARTS. ATTEMPT NUMBER  1, TIME INCREMENT  8.439E-05

  NUMBER OF EQUATIONS =      3006     NUMBER OF RHS =    1
  NUMBER OF FLOATING PT. OPERATIONS =  8.47E+05

     CHECK POINT   START OF SOLVER    

     CHECK POINT  END OF SOLVER       

       ELAPSED USER TIME (SEC)      =   0.0000    
       ELAPSED SYSTEM TIME (SEC)    =   0.0000    
       ELAPSED TOTAL CPU TIME (SEC) =   0.0000    
       ELAPSED WALLCLOCK TIME (SEC) =          0

               CONVERGENCE CHECKS FOR EQUILIBRIUM ITERATION     1


 AVERAGE FORCE                      7.093E-03   TIME AVG. FORCE       1.818E-02
 LARGEST RESIDUAL FORCE            -7.686E-15   AT NODE        493   DOF  2
   INSTANCE: BEAM                                                                            
 LARGEST INCREMENT OF DISP.         6.341E-05   AT NODE        405   DOF  2
   INSTANCE: BEAM                                                                            
 LARGEST CORRECTION TO DISP.        1.464E-04   AT NODE        499   DOF  2
   INSTANCE: BEAM                                                                            
          THE FORCE     EQUILIBRIUM RESPONSE WAS LINEAR IN THIS INCREMENT

 AVERAGE MOMENT                     6.730E-02   TIME AVG. MOMENT      7.572E-02
 LARGEST RESIDUAL MOMENT           -1.509E-14   AT NODE        497   DOF  6
   INSTANCE: BEAM                                                                            
 LARGEST INCREMENT OF ROTATION     -4.421E-06   AT NODE        413   DOF  6
   INSTANCE: BEAM                                                                            
 LARGEST CORRECTION TO ROTATION     3.946E-05   AT NODE        100   DOF  6
   INSTANCE: BEAM                                                                            
          THE MOMENT    EQUILIBRIUM RESPONSE WAS LINEAR IN THIS INCREMENT

  MAXIMUM HALF-INCREMENT FORCE RESIDUAL IS   -15.1     AND OCCURS AT NODE        500 INSTANCE BEAM                                                                            
  MAXIMUM HALF-INCREMENT MOMENT RESIDUAL IS   -27.8     AND OCCURS AT NODE        499 INSTANCE BEAM                                                                            

 ITERATION SUMMARY FOR THE INCREMENT:   1 TOTAL ITERATIONS, OF WHICH
   0 ARE SEVERE DISCONTINUITY ITERATIONS AND  1 ARE EQUILIBRIUM ITERATIONS.

 TIME INCREMENT COMPLETED  8.439E-05,  FRACTION OF STEP COMPLETED  7.069E-02
 STEP TIME COMPLETED       7.069E-04,  TOTAL TIME COMPLETED        7.069E-04


  INCREMENT    29 STARTS. ATTEMPT NUMBER  1, TIME INCREMENT  8.439E-05

  NUMBER OF EQUATIONS =      3006     NUMBER OF RHS =    1
  NUMBER OF FLOATING PT. OPERATIONS =  8.47E+05

     CHECK POINT   START OF SOLVER    

     CHECK POINT  END OF SOLVER       

       ELAPSED USER TIME (SEC)      =   0.0000    
       ELAPSED SYSTEM TIME (SEC)    =   0.0000    
       ELAPSED TOTAL CPU TIME (SEC) =   0.0000    
[...]
   INSTANCE: BEAM                                                                            
 LARGEST INCREMENT OF ROTATION      1.231E-06   AT NODE        192   DOF  6
   INSTANCE: BEAM                                                                            
 LARGEST CORRECTION TO ROTATION    -5.526E-07   AT NODE         24   DOF  6
   INSTANCE: BEAM                                                                            
          THE MOMENT    EQUILIBRIUM RESPONSE WAS LINEAR IN THIS INCREMENT

  MAXIMUM HALF-INCREMENT FORCE RESIDUAL IS  -5.859E-03 AND OCCURS AT NODE        501 INSTANCE BEAM                                                                            
  MAXIMUM HALF-INCREMENT MOMENT RESIDUAL IS   6.444E-03 AND OCCURS AT NODE        498 INSTANCE BEAM                                                                            

 ITERATION SUMMARY FOR THE INCREMENT:   1 TOTAL ITERATIONS, OF WHICH
   0 ARE SEVERE DISCONTINUITY ITERATIONS AND  1 ARE EQUILIBRIUM ITERATIONS.

 TIME INCREMENT COMPLETED  1.000E-04,  FRACTION OF STEP COMPLETED  0.934    
 STEP TIME COMPLETED       9.344E-03,  TOTAL TIME COMPLETED        9.344E-03


  INCREMENT   116 STARTS. ATTEMPT NUMBER  1, TIME INCREMENT  1.000E-04

  NUMBER OF EQUATIONS =      3006     NUMBER OF RHS =    1
  NUMBER OF FLOATING PT. OPERATIONS =  8.47E+05

     CHECK POINT   START OF SOLVER    

     CHECK POINT  END OF SOLVER       

       ELAPSED USER TIME (SEC)      =   0.0000    
       ELAPSED SYSTEM TIME (SEC)    =   0.0000    
       ELAPSED TOTAL CPU TIME (SEC) =   0.0000    
       ELAPSED WALLCLOCK TIME (SEC) =          0

               CONVERGENCE CHECKS FOR EQUILIBRIUM ITERATION     1


 AVERAGE FORCE                      1.383E-03   TIME AVG. FORCE       5.806E-03
 LARGEST RESIDUAL FORCE            -4.565E-14   AT NODE        483   DOF  2
   INSTANCE: BEAM                                                                            
 LARGEST INCREMENT OF DISP.        -4.305E-05   AT NODE        173   DOF  2
   INSTANCE: BEAM                                                                            
 LARGEST CORRECTION TO DISP.        1.439E-05   AT NODE        125   DOF  2
   INSTANCE: BEAM                                                                            
          THE FORCE     EQUILIBRIUM RESPONSE WAS LINEAR IN THIS INCREMENT

 AVERAGE MOMENT                     4.924E-02   TIME AVG. MOMENT      5.232E-02
 LARGEST RESIDUAL MOMENT           -3.065E-14   AT NODE        500   DOF  6
   INSTANCE: BEAM                                                                            
 LARGEST INCREMENT OF ROTATION     -1.288E-06   AT NODE        159   DOF  6
   INSTANCE: BEAM                                                                            
 LARGEST CORRECTION TO ROTATION    -6.519E-07   AT NODE         10   DOF  6
   INSTANCE: BEAM                                                                            
          THE MOMENT    EQUILIBRIUM RESPONSE WAS LINEAR IN THIS INCREMENT

  MAXIMUM HALF-INCREMENT FORCE RESIDUAL IS   5.324E-03 AND OCCURS AT NODE        501 INSTANCE BEAM                                                                            
  MAXIMUM HALF-INCREMENT MOMENT RESIDUAL IS  -5.870E-03 AND OCCURS AT NODE        498 INSTANCE BEAM                                                                            

 ITERATION SUMMARY FOR THE INCREMENT:   1 TOTAL ITERATIONS, OF WHICH
   0 ARE SEVERE DISCONTINUITY ITERATIONS AND  1 ARE EQUILIBRIUM ITERATIONS.

 TIME INCREMENT COMPLETED  1.000E-04,  FRACTION OF STEP COMPLETED  0.944    
 STEP TIME COMPLETED       9.444E-03,  TOTAL TIME COMPLETED        9.444E-03


  INCREMENT   117 STARTS. ATTEMPT NUMBER  1, TIME INCREMENT  1.000E-04

  NUMBER OF EQUATIONS =      3006     NUMBER OF RHS =    1
  NUMBER OF FLOATING PT. OPERATIONS =  8.47E+05

     CHECK POINT   START OF SOLVER    

     CHECK POINT  END OF SOLVER       

       ELAPSED USER TIME (SEC)      =   0.0000    
       ELAPSED SYSTEM TIME (SEC)    =   0.0000    
       ELAPSED TOTAL CPU TIME (SEC) =   0.0000    
       ELAPSED WALLCLOCK TIME (SEC) =          0

               CONVERGENCE CHECKS FOR EQUILIBRIUM ITERATION     1


 AVERAGE FORCE                      1.482E-03   TIME AVG. FORCE       5.769E-03
 LARGEST RESIDUAL FORCE             3.127E-14   AT NODE        500   DOF  2
   INSTANCE: BEAM                                                                            
 LARGEST INCREMENT OF DISP.        -3.646E-05   AT NODE         17   DOF  2
   INSTANCE: BEAM                                                                            
 LARGEST CORRECTION TO DISP.        1.376E-05   AT NODE        122   DOF  2
   INSTANCE: BEAM                                                                            
          THE FORCE     EQUILIBRIUM RESPONSE WAS LINEAR IN THIS INCREMENT

 AVERAGE MOMENT                     4.759E-02   TIME AVG. MOMENT      5.228E-02
 LARGEST RESIDUAL MOMENT            2.688E-14   AT NODE        486   DOF  6
   INSTANCE: BEAM                                                                            
 LARGEST INCREMENT OF ROTATION     -9.732E-07   AT NODE        151   DOF  6
   INSTANCE: BEAM                                                                            
 LARGEST CORRECTION TO ROTATION    -6.858E-07   AT NODE          9   DOF  6
   INSTANCE: BEAM                                                                            
          THE MOMENT    EQUILIBRIUM RESPONSE WAS LINEAR IN THIS INCREMENT

  MAXIMUM HALF-INCREMENT FORCE RESIDUAL IS  -4.847E-03 AND OCCURS AT NODE        501 INSTANCE BEAM                                                                            
  MAXIMUM HALF-INCREMENT MOMENT RESIDUAL IS   5.315E-03 AND OCCURS AT NODE        498 INSTANCE BEAM                                                                            

 ITERATION SUMMARY FOR THE INCREMENT:   1 TOTAL ITERATIONS, OF WHICH
   0 ARE SEVERE DISCONTINUITY ITERATIONS AND  1 ARE EQUILIBRIUM ITERATIONS.

 TIME INCREMENT COMPLETED  1.000E-04,  FRACTION OF STEP COMPLETED  0.954    
 STEP TIME COMPLETED       9.544E-03,  TOTAL TIME COMPLETED        9.544E-03


  INCREMENT   118 STARTS. ATTEMPT NUMBER  1, TIME INCREMENT  1.000E-04

  NUMBER OF EQUATIONS =      3006     NUMBER OF RHS =    1
  NUMBER OF FLOATING PT. OPERATIONS =  8.47E+05

     CHECK POINT   START OF SOLVER    

     CHECK POINT  END OF SOLVER       

       ELAPSED USER TIME (SEC)      =   0.0000    
       ELAPSED SYSTEM TIME (SEC)    =   0.0000    
       ELAPSED TOTAL CPU TIME (SEC) =   0.0000    
       ELAPSED WALLCLOCK TIME (SEC) =          0

               CONVERGENCE CHECKS FOR EQUILIBRIUM ITERATION     1


 AVERAGE FORCE                      3.617E-04   TIME AVG. FORCE       5.723E-03
 LARGEST RESIDUAL FORCE            -3.851E-14   AT NODE        494   DOF  2
   INSTANCE: BEAM                                                                            
 LARGEST INCREMENT OF DISP.         4.052E-05   AT NODE        101   DOF  2
   INSTANCE: BEAM                                                                            
 LARGEST CORRECTION TO DISP.        6.809E-06   AT NODE         15   DOF  2
   INSTANCE: BEAM                                                                            
          THE FORCE     EQUILIBRIUM RESPONSE WAS LINEAR IN THIS INCREMENT

 AVERAGE MOMENT                     3.823E-02   TIME AVG. MOMENT      5.216E-02
 LARGEST RESIDUAL MOMENT            3.202E-14   AT NODE         99   DOF  6
   INSTANCE: BEAM                                                                            
 LARGEST INCREMENT OF ROTATION     -1.538E-06   AT NODE        139   DOF  6
   INSTANCE: BEAM                                                                            
 LARGEST CORRECTION TO ROTATION     3.426E-07   AT NODE         12   DOF  6
   INSTANCE: BEAM                                                                            
          THE MOMENT    EQUILIBRIUM RESPONSE WAS LINEAR IN THIS INCREMENT

  MAXIMUM HALF-INCREMENT FORCE RESIDUAL IS   4.462E-03 AND OCCURS AT NODE        501 INSTANCE BEAM                                                                            
  MAXIMUM HALF-INCREMENT MOMENT RESIDUAL IS  -4.757E-03 AND OCCURS AT NODE        498 INSTANCE BEAM                                                                            

 ITERATION SUMMARY FOR THE INCREMENT:   1 TOTAL ITERATIONS, OF WHICH
   0 ARE SEVERE DISCONTINUITY ITERATIONS AND  1 ARE EQUILIBRIUM ITERATIONS.

 TIME INCREMENT COMPLETED  1.000E-04,  FRACTION OF STEP COMPLETED  0.964    
 STEP TIME COMPLETED       9.644E-03,  TOTAL TIME COMPLETED        9.644E-03


  INCREMENT   119 STARTS. ATTEMPT NUMBER  1, TIME INCREMENT  1.000E-04

  NUMBER OF EQUATIONS =      3006     NUMBER OF RHS =    1
  NUMBER OF FLOATING PT. OPERATIONS =  8.47E+05

     CHECK POINT   START OF SOLVER    

     CHECK POINT  END OF SOLVER       

       ELAPSED USER TIME (SEC)      =   0.0000    
       ELAPSED SYSTEM TIME (SEC)    =   0.0000    
       ELAPSED TOTAL CPU TIME (SEC) =   0.0000    
       ELAPSED WALLCLOCK TIME (SEC) =          0

               CONVERGENCE CHECKS FOR EQUILIBRIUM ITERATION     1


 AVERAGE FORCE                      1.138E-03   TIME AVG. FORCE       5.684E-03
 LARGEST RESIDUAL FORCE            -4.570E-14   AT NODE        483   DOF  2
   INSTANCE: BEAM                                                                            
 LARGEST INCREMENT OF DISP.        -4.656E-05   AT NODE        150   DOF  2
   INSTANCE: BEAM                                                                            
 LARGEST CORRECTION TO DISP.       -2.009E-05   AT NODE        124   DOF  2
   INSTANCE: BEAM                                                                            
          THE FORCE     EQUILIBRIUM RESPONSE WAS LINEAR IN THIS INCREMENT

 AVERAGE MOMENT                     3.630E-02   TIME AVG. MOMENT      5.203E-02
 LARGEST RESIDUAL MOMENT            2.963E-14   AT NODE        489   DOF  6
   INSTANCE: BEAM                                                                            
 LARGEST INCREMENT OF ROTATION     -2.095E-06   AT NODE        137   DOF  6
   INSTANCE: BEAM                                                                            
 LARGEST CORRECTION TO ROTATION     8.455E-07   AT NODE        136   DOF  6
   INSTANCE: BEAM                                                                            
          THE MOMENT    EQUILIBRIUM RESPONSE WAS LINEAR IN THIS INCREMENT

  MAXIMUM HALF-INCREMENT FORCE RESIDUAL IS  -4.089E-03 AND OCCURS AT NODE        501 INSTANCE BEAM                                                                            
  MAXIMUM HALF-INCREMENT MOMENT RESIDUAL IS   4.250E-03 AND OCCURS AT NODE        498 INSTANCE BEAM                                                                            

 ITERATION SUMMARY FOR THE INCREMENT:   1 TOTAL ITERATIONS, OF WHICH
   0 ARE SEVERE DISCONTINUITY ITERATIONS AND  1 ARE EQUILIBRIUM ITERATIONS.

 TIME INCREMENT COMPLETED  1.000E-04,  FRACTION OF STEP COMPLETED  0.974    
 STEP TIME COMPLETED       9.744E-03,  TOTAL TIME COMPLETED        9.744E-03


  INCREMENT   120 STARTS. ATTEMPT NUMBER  1, TIME INCREMENT  1.000E-04

  NUMBER OF EQUATIONS =      3006     NUMBER OF RHS =    1
  NUMBER OF FLOATING PT. OPERATIONS =  8.47E+05

     CHECK POINT   START OF SOLVER    

     CHECK POINT  END OF SOLVER       

       ELAPSED USER TIME (SEC)      =   0.0000    
       ELAPSED SYSTEM TIME (SEC)    =   0.0000    
       ELAPSED TOTAL CPU TIME (SEC) =   0.0000    
       ELAPSED WALLCLOCK TIME (SEC) =          0

               CONVERGENCE CHECKS FOR EQUILIBRIUM ITERATION     1


 AVERAGE FORCE                      1.325E-03   TIME AVG. FORCE       5.648E-03
 LARGEST RESIDUAL FORCE             4.748E-14   AT NODE         96   DOF  2
   INSTANCE: BEAM                                                                            
 LARGEST INCREMENT OF DISP.         4.241E-05   AT NODE        101   DOF  2
   INSTANCE: BEAM                                                                            
 LARGEST CORRECTION TO DISP.       -1.987E-05   AT NODE        122   DOF  2
   INSTANCE: BEAM                                                                            
          THE FORCE     EQUILIBRIUM RESPONSE WAS LINEAR IN THIS INCREMENT

 AVERAGE MOMENT                     3.856E-02   TIME AVG. MOMENT      5.192E-02
 LARGEST RESIDUAL MOMENT            3.352E-14   AT NODE        482   DOF  6
   INSTANCE: BEAM                                                                            
 LARGEST INCREMENT OF ROTATION     -1.131E-06   AT NODE        137   DOF  6
   INSTANCE: BEAM                                                                            
 LARGEST CORRECTION TO ROTATION     8.222E-07   AT NODE          9   DOF  6
   INSTANCE: BEAM                                                                            
          THE MOMENT    EQUILIBRIUM RESPONSE WAS LINEAR IN THIS INCREMENT

  MAXIMUM HALF-INCREMENT FORCE RESIDUAL IS   3.687E-03 AND OCCURS AT NODE        501 INSTANCE BEAM                                                                            
  MAXIMUM HALF-INCREMENT MOMENT RESIDUAL IS  -3.823E-03 AND OCCURS AT NODE        498 INSTANCE BEAM                                                                            

 ITERATION SUMMARY FOR THE INCREMENT:   1 TOTAL ITERATIONS, OF WHICH
   0 ARE SEVERE DISCONTINUITY ITERATIONS AND  1 ARE EQUILIBRIUM ITERATIONS.

 TIME INCREMENT COMPLETED  1.000E-04,  FRACTION OF STEP COMPLETED  0.984    
 STEP TIME COMPLETED       9.844E-03,  TOTAL TIME COMPLETED        9.844E-03


  INCREMENT   121 STARTS. ATTEMPT NUMBER  1, TIME INCREMENT  1.000E-04

  NUMBER OF EQUATIONS =      3006     NUMBER OF RHS =    1
  NUMBER OF FLOATING PT. OPERATIONS =  8.47E+05

     CHECK POINT   START OF SOLVER    

     CHECK POINT  END OF SOLVER       

       ELAPSED USER TIME (SEC)      =   0.0000    
       ELAPSED SYSTEM TIME (SEC)    =   0.0000    
       ELAPSED TOTAL CPU TIME (SEC) =   0.0000    
       ELAPSED WALLCLOCK TIME (SEC) =          0

               CONVERGENCE CHECKS FOR EQUILIBRIUM ITERATION     1


 AVERAGE FORCE                      1.153E-03   TIME AVG. FORCE       5.611E-03
 LARGEST RESIDUAL FORCE             5.143E-14   AT NODE        482   DOF  2
   INSTANCE: BEAM                                                                            
 LARGEST INCREMENT OF DISP.         4.053E-05   AT NODE        101   DOF  2
   INSTANCE: BEAM                                                                            
 LARGEST CORRECTION TO DISP.        7.451E-06   AT NODE        209   DOF  2
   INSTANCE: BEAM                                                                            
          THE FORCE     EQUILIBRIUM RESPONSE WAS LINEAR IN THIS INCREMENT

 AVERAGE MOMENT                     3.836E-02   TIME AVG. MOMENT      5.180E-02
 LARGEST RESIDUAL MOMENT            3.882E-14   AT NODE        483   DOF  6
   INSTANCE: BEAM                                                                            
 LARGEST INCREMENT OF ROTATION      9.085E-07   AT NODE        222   DOF  6
   INSTANCE: BEAM                                                                            
 LARGEST CORRECTION TO ROTATION     3.881E-07   AT NODE        198   DOF  6
   INSTANCE: BEAM                                                                            
          THE MOMENT    EQUILIBRIUM RESPONSE WAS LINEAR IN THIS INCREMENT

  MAXIMUM HALF-INCREMENT FORCE RESIDUAL IS  -3.309E-03 AND OCCURS AT NODE        501 INSTANCE BEAM                                                                            
  MAXIMUM HALF-INCREMENT MOMENT RESIDUAL IS   3.444E-03 AND OCCURS AT NODE        498 INSTANCE BEAM                                                                            

 ITERATION SUMMARY FOR THE INCREMENT:   1 TOTAL ITERATIONS, OF WHICH
   0 ARE SEVERE DISCONTINUITY ITERATIONS AND  1 ARE EQUILIBRIUM ITERATIONS.

 TIME INCREMENT COMPLETED  1.000E-04,  FRACTION OF STEP COMPLETED  0.994    
 STEP TIME COMPLETED       9.944E-03,  TOTAL TIME COMPLETED        9.944E-03


  INCREMENT   122 STARTS. ATTEMPT NUMBER  1, TIME INCREMENT  5.553E-05

  NUMBER OF EQUATIONS =      3006     NUMBER OF RHS =    1
  NUMBER OF FLOATING PT. OPERATIONS =  8.47E+05

     CHECK POINT   START OF SOLVER    

     CHECK POINT  END OF SOLVER       

       ELAPSED USER TIME (SEC)      =   0.0000    
       ELAPSED SYSTEM TIME (SEC)    =   0.0000    
       ELAPSED TOTAL CPU TIME (SEC) =   0.0000    
       ELAPSED WALLCLOCK TIME (SEC) =          0

               CONVERGENCE CHECKS FOR EQUILIBRIUM ITERATION     1


 AVERAGE FORCE                      9.912E-04   TIME AVG. FORCE       5.573E-03
 LARGEST RESIDUAL FORCE             3.094E-14   AT NODE         91   DOF  2
   INSTANCE: BEAM                                                                            
 LARGEST INCREMENT OF DISP.        -2.846E-05   AT NODE        125   DOF  2
   INSTANCE: BEAM                                                                            
 LARGEST CORRECTION TO DISP.        4.335E-06   AT NODE        122   DOF  2
   INSTANCE: BEAM                                                                            
          THE FORCE     EQUILIBRIUM RESPONSE WAS LINEAR IN THIS INCREMENT

 AVERAGE MOMENT                     3.375E-02   TIME AVG. MOMENT      5.166E-02
 LARGEST RESIDUAL MOMENT           -2.721E-14   AT NODE        481   DOF  6
   INSTANCE: BEAM                                                                            
 LARGEST INCREMENT OF ROTATION      8.519E-07   AT NODE        136   DOF  6
   INSTANCE: BEAM                                                                            
 LARGEST CORRECTION TO ROTATION    -1.961E-07   AT NODE        133   DOF  6
   INSTANCE: BEAM                                                                            
          THE MOMENT    EQUILIBRIUM RESPONSE WAS LINEAR IN THIS INCREMENT

  MAXIMUM HALF-INCREMENT FORCE RESIDUAL IS   1.005E-03 AND OCCURS AT NODE        501 INSTANCE BEAM                                                                            
  MAXIMUM HALF-INCREMENT MOMENT RESIDUAL IS  -1.039E-03 AND OCCURS AT NODE        498 INSTANCE BEAM                                                                            

 ITERATION SUMMARY FOR THE INCREMENT:   1 TOTAL ITERATIONS, OF WHICH
   0 ARE SEVERE DISCONTINUITY ITERATIONS AND  1 ARE EQUILIBRIUM ITERATIONS.

 TIME INCREMENT COMPLETED  5.553E-05,  FRACTION OF STEP COMPLETED   1.00    
 STEP TIME COMPLETED       1.000E-02,  TOTAL TIME COMPLETED        1.000E-02


          THE ANALYSIS HAS BEEN COMPLETED



     ANALYSIS SUMMARY:
     TOTAL OF        122  INCREMENTS
                       0  CUTBACKS IN AUTOMATIC INCREMENTATION
                     122  ITERATIONS INCLUDING CONTACT ITERATIONS IF PRESENT
                     124  PASSES THROUGH THE EQUATION SOLVER OF WHICH 
                      26  INVOLVE MATRIX DECOMPOSITION, INCLUDING
                       2  DECOMPOSITION(S) OF THE MASS MATRIX
                       1  REORDERING OF EQUATIONS TO MINIMIZE WAVEFRONT
                       0  ADDITIONAL RESIDUAL EVALUATIONS FOR LINE SEARCHES
                       0  ADDITIONAL OPERATOR EVALUATIONS FOR LINE SEARCHES
                       0  WARNING MESSAGES DURING USER INPUT PROCESSING
                       0  WARNING MESSAGES DURING ANALYSIS
                       0  ANALYSIS WARNINGS ARE NUMERICAL PROBLEM MESSAGES
                       0  ANALYSIS WARNINGS ARE NEGATIVE EIGENVALUE MESSAGES
                       0  ERROR MESSAGES



     JOB TIME SUMMARY
       USER TIME (SEC)      =   3.9000    
       SYSTEM TIME (SEC)    =  0.30000    
       TOTAL CPU TIME (SEC) =   4.2000    
       WALLCLOCK TIME (SEC) =          6
