1

   Abaqus 2020                                  Date 31-Jan-2024   Time 15:01:19
   For use by Supplied by Team-SolidSQUAD under license from Dassault Systemes or its subsidiary.

                                                                                 
                                                                                 
 STEP    1     INCREMENT     1     STEP TIME    0.00    


                        S T E P       1     D Y N A M I C   A N A L Y S I S - I M P L I C I T  I N T E G R A T I O N


                                                                                          

          DYNAMIC APPLICATION PACKED SCHEME IS                 TRANSIENT FIDELITY  
          HILBER-HUGHES-TAYLOR (HHT) TIME INTEGRATOR IS USED

     AUTOMATIC TIME CONTROL WITH -
          A SUGGESTED INITIAL TIME INCREMENT OF                1.000E-06
          AND A TOTAL TIME PERIOD OF                           1.000E-02
          THE MINIMUM TIME INCREMENT ALLOWED IS                1.000E-07
          THE MAXIMUM TIME INCREMENT ALLOWED IS                1.000E-04
          SCALE FACTOR ON TIME AVERAGE FORCE FOR HALF-
           -INCREMENT RESIDUAL COMPUTATIONS IS                 1.000E+03

          HILBER-HUGHES-TAYLOR METHOD PARAMETERS:  ALPHA   IS  -5.000000E-02
                                                   BETA    IS   0.275625    
                                                   GAMMA   IS   0.550000    
          SINGULAR MASS TREATMENT TYPE IS                     ERROR
          CONSERVATIVE TIME INCREMENTATION IS USED
          STEP AMPLITUDE IS                                    STEP

 CONVERGENCE TOLERANCE PARAMETERS FOR FORCE    
     CRITERION FOR RESIDUAL FORCE     FOR A NONLINEAR PROBLEM          5.000E-03
     CRITERION FOR DISP.    CORRECTION IN A NONLINEAR PROBLEM          1.000E-02
     INITIAL VALUE OF TIME AVERAGE FORCE                               1.000E-02
     AVERAGE FORCE     IS TIME AVERAGE FORCE    
     ALTERNATE CRIT. FOR RESIDUAL FORCE     FOR A NONLINEAR PROBLEM    2.000E-02
     CRITERION FOR ZERO FORCE     RELATIVE TO TIME AVRG. FORCE         1.000E-05
     CRITERION FOR RESIDUAL FORCE     WHEN THERE IS ZERO FLUX          1.000E-05
     CRITERION FOR DISP.    CORRECTION WHEN THERE IS ZERO FLUX         1.000E-03
     CRITERION FOR RESIDUAL FORCE     FOR A LINEAR INCREMENT           1.000E-08
     FIELD CONVERSION RATIO                                             1.00    
     CRITERION FOR ZERO FORCE     REL. TO TIME AVRG. MAX. FORCE        1.000E-05
     CRITERION FOR ZERO DISP.    RELATIVE TO CHARACTERISTIC LENGTH     1.000E-08

 CONVERGENCE TOLERANCE PARAMETERS FOR MOMENT   
     CRITERION FOR RESIDUAL MOMENT    FOR A NONLINEAR PROBLEM          5.000E-03
     CRITERION FOR ROTATION CORRECTION IN A NONLINEAR PROBLEM          1.000E-02
     INITIAL VALUE OF TIME AVERAGE MOMENT                              1.000E-02
     AVERAGE MOMENT    IS TIME AVERAGE MOMENT   
     ALTERNATE CRIT. FOR RESIDUAL MOMENT    FOR A NONLINEAR PROBLEM    2.000E-02
     CRITERION FOR ZERO MOMENT    RELATIVE TO TIME AVRG. MOMENT        1.000E-05
     CRITERION FOR RESIDUAL MOMENT    WHEN THERE IS ZERO FLUX          1.000E-05
     CRITERION FOR ROTATION CORRECTION WHEN THERE IS ZERO FLUX         1.000E-03
     CRITERION FOR RESIDUAL MOMENT    FOR A LINEAR INCREMENT           1.000E-08
     FIELD CONVERSION RATIO                                             1.00    
     CRITERION FOR ZERO MOMENT    REL. TO TIME AVRG. MAX. MOMENT       1.000E-05

     VOLUMETRIC STRAIN COMPATIBILITY TOLERANCE FOR HYBRID SOLIDS       1.000E-05
     AXIAL STRAIN COMPATIBILITY TOLERANCE FOR HYBRID BEAMS             1.000E-05
     TRANS. SHEAR STRAIN COMPATIBILITY TOLERANCE FOR HYBRID BEAMS      1.000E-05
     SOFT CONTACT CONSTRAINT COMPATIBILITY TOLERANCE FOR P>P0          5.000E-03
     SOFT CONTACT CONSTRAINT COMPATIBILITY TOLERANCE FOR P=0.0         0.100    
     CONTACT FORCE ERROR TOLERANCE FOR CONVERT SDI=YES                 1.00    
     DISPLACEMENT COMPATIBILITY TOLERANCE FOR DCOUP ELEMENTS           1.000E-05
     ROTATION COMPATIBILITY TOLERANCE FOR DCOUP ELEMENTS               1.000E-05

 EQUILIBRIUM WILL BE CHECKED FOR SEVERE DISCONTINUITY ITERATIONS

 TIME INCREMENTATION CONTROL PARAMETERS:
     FIRST EQUILIBRIUM ITERATION FOR CONSECUTIVE DIVERGENCE CHECK              4
     EQUILIBRIUM ITERATION AT WHICH LOG. CONVERGENCE RATE CHECK BEGINS         8
     EQUILIBRIUM ITERATION AFTER WHICH ALTERNATE RESIDUAL IS USED              9
     MAXIMUM EQUILIBRIUM ITERATIONS ALLOWED                                   16
     EQUILIBRIUM ITERATION COUNT FOR CUT-BACK IN NEXT INCREMENT               10
     MAXIMUM EQUILIB. ITERS IN TWO INCREMENTS FOR TIME INCREMENT INCREASE      4
     MAXIMUM ITERATIONS FOR SEVERE DISCONTINUITIES                            50
     MAXIMUM ATTEMPTS ALLOWED IN AN INCREMENT                                  5
     MAXIMUM DISCON. ITERS IN TWO INCREMENTS FOR TIME INCREMENT INCREASE      50
     MAXIMUM CONTACT AUGMENTATIONS FOR *SURFACE BEHAVIOR,AUGMENTED LAGRANGE   50
     CONSECUTIVE INCS MEETING TIME INTEG. TOL. FOR TIME INC. INCREASE          3
     CUT-BACK FACTOR AFTER DIVERGENCE                                 0.2500    
     CUT-BACK FACTOR FOR TOO SLOW CONVERGENCE                         0.5000    
     CUT-BACK FACTOR AFTER TOO MANY EQUILIBRIUM ITERATIONS            0.7500    
     CUT-BACK FACTOR AFTER TOO MANY SEVERE DISCONTINUITY ITERATIONS   0.2500    
     CUT-BACK FACTOR AFTER PROBLEMS IN ELEMENT ASSEMBLY               0.2500    
     INCREASE FACTOR AFTER TWO INCREMENTS THAT CONVERGE QUICKLY        1.500    
     MAX. TIME INCREMENT INCREASE FACTOR ALLOWED                       1.500    
     MAX. TIME INCREMENT INCREASE FACTOR ALLOWED (DYNAMICS)            1.250    
     MAX. TIME INCREMENT INCREASE FACTOR ALLOWED (DIFFUSION)           2.000    
     MINIMUM TIME INCREMENT RATIO FOR EXTRAPOLATION TO OCCUR          0.1000    
     CUT-BACK FACTOR WHEN TIME INTEGRATION ACCURACY TOL. EXCEEDED     0.8500    
     MAX. RATIO OF TIME INTEG. MEASURE TO TOL. FOR TIME INC. INCREASE 0.7500    
     INCREASE FACTOR FOR TIME INCREMENT WHEN POSSIBLE                 0.8000    
     MIN. TIME INC. INCREASE FACTOR IN LINEAR TRANSIENT PROBLEMS      0.9500    
     MAX. RATIO OF TIME INCREMENT TO STABILITY LIMIT                   1.000    
     FRACTION OF STABILITY LIMIT FOR NEW TIME INCREMENT               0.9500    
     TIME INCREMENT INCREASE FACTOR BEFORE A TIME POINT                1.000    
     GLOBAL STABILIZATION CONTROL IS NOT USED

          PRINT OF INCREMENT NUMBER, TIME, ETC., EVERY    1  INCREMENTS

     THE MAXIMUM NUMBER OF INCREMENTS IN THIS STEP IS                 1000000

     VELOCITY-BASED PARABOLIC EXTRAPOLATION WILL BE USED

     CHARACTERISTIC ELEMENT LENGTH      2.00    

     DETAILS REGARDING ACTUAL SOLUTION WAVEFRONT REQUESTED

     DETAILED OUTPUT OF DIAGNOSTICS TO DATABASE REQUESTED

     PRINT OF INCREMENT NUMBER, TIME, ETC., TO THE MESSAGE FILE EVERY     1  INCREMENTS

     COLLECTING MODEL CONSTRAINT INFORMATION FOR OVERCONSTRAINT CHECKS

     COLLECTING STEP CONSTRAINT INFORMATION FOR OVERCONSTRAINT CHECKS

  NUMBER OF EQUATIONS =      3006     NUMBER OF RHS =    1
  NUMBER OF FLOATING PT. OPERATIONS =  8.47E+05

     CHECK POINT   START OF SOLVER    

     CHECK POINT  END OF SOLVER       

       ELAPSED USER TIME (SEC)      =   0.0000    
       ELAPSED SYSTEM TIME (SEC)    =   0.0000    
       ELAPSED TOTAL CPU TIME (SEC) =   0.0000    
       ELAPSED WALLCLOCK TIME (SEC) =          0

  NUMBER OF EQUATIONS =      3006     NUMBER OF RHS =    1
  NUMBER OF FLOATING PT. OPERATIONS =  8.47E+05

     CHECK POINT   START OF SOLVER    

     CHECK POINT  END OF SOLVER       

       ELAPSED USER TIME (SEC)      =  0.10000    
       ELAPSED SYSTEM TIME (SEC)    =   0.0000    
       ELAPSED TOTAL CPU TIME (SEC) =  0.10000    
       ELAPSED WALLCLOCK TIME (SEC) =          0


  INCREMENT     1 STARTS. ATTEMPT NUMBER  1, TIME INCREMENT  1.000E-06

  NUMBER OF EQUATIONS =      3006     NUMBER OF RHS =    1
  NUMBER OF FLOATING PT. OPERATIONS =  8.47E+05

     CHECK POINT   START OF SOLVER    

     CHECK POINT  END OF SOLVER       

       ELAPSED USER TIME (SEC)      =   0.0000    
       ELAPSED SYSTEM TIME (SEC)    =   0.0000    
       ELAPSED TOTAL CPU TIME (SEC) =   0.0000    
       ELAPSED WALLCLOCK TIME (SEC) =          0

               CONVERGENCE CHECKS FOR EQUILIBRIUM ITERATION     1


 AVERAGE FORCE                      3.882E-04   TIME AVG. FORCE       3.882E-04
 LARGEST RESIDUAL FORCE             2.168E-19   AT NODE        501   DOF  2
   INSTANCE: BEAM                                                                            
 LARGEST INCREMENT OF DISP.         1.540E-08   AT NODE        101   DOF  2
   INSTANCE: BEAM                                                                            
 LARGEST CORRECTION TO DISP.        1.540E-08   AT NODE        101   DOF  2
   INSTANCE: BEAM                                                                            
          THE FORCE     EQUILIBRIUM RESPONSE WAS LINEAR IN THIS INCREMENT

 AVERAGE MOMENT                     7.480E-06   TIME AVG. MOMENT      7.480E-06
 LARGEST RESIDUAL MOMENT            2.168E-19   AT NODE        101   DOF  6
   INSTANCE: BEAM                                                                            
 LARGEST INCREMENT OF ROTATION      1.557E-10   AT NODE        101   DOF  6
   INSTANCE: BEAM                                                                            
 LARGEST CORRECTION TO ROTATION     1.557E-10   AT NODE        101   DOF  6
   INSTANCE: BEAM                                                                            
          THE MOMENT    EQUILIBRIUM RESPONSE WAS LINEAR IN THIS INCREMENT

  MAXIMUM HALF-INCREMENT FORCE RESIDUAL IS   4.240E-03 AND OCCURS AT NODE        101 INSTANCE BEAM                                                                            
  MAXIMUM HALF-INCREMENT MOMENT RESIDUAL IS  -2.658E-04 AND OCCURS AT NODE        501 INSTANCE BEAM                                                                            

 ITERATION SUMMARY FOR THE INCREMENT:   1 TOTAL ITERATIONS, OF WHICH
   0 ARE SEVERE DISCONTINUITY ITERATIONS AND  1 ARE EQUILIBRIUM ITERATIONS.

 TIME INCREMENT COMPLETED  1.000E-06,  FRACTION OF STEP COMPLETED  1.000E-04
 STEP TIME COMPLETED       1.000E-06,  TOTAL TIME COMPLETED        1.000E-06


  INCREMENT     2 STARTS. ATTEMPT NUMBER  1, TIME INCREMENT  1.000E-06

  NUMBER OF EQUATIONS =      3006     NUMBER OF RHS =    1
  NUMBER OF FLOATING PT. OPERATIONS =  8.47E+05

     CHECK POINT   START OF SOLVER    

     CHECK POINT  END OF SOLVER       

       ELAPSED USER TIME (SEC)      =   0.0000    
       ELAPSED SYSTEM TIME (SEC)    =   0.0000    
       ELAPSED TOTAL CPU TIME (SEC) =   0.0000    
       ELAPSED WALLCLOCK TIME (SEC) =          0

               CONVERGENCE CHECKS FOR EQUILIBRIUM ITERATION     1


 AVERAGE FORCE                      3.721E-03   TIME AVG. FORCE       2.055E-03
 LARGEST RESIDUAL FORCE            -1.735E-18   AT NODE        501   DOF  2
   INSTANCE: BEAM                                                                            
 LARGEST INCREMENT OF DISP.         1.049E-07   AT NODE        101   DOF  2
   INSTANCE: BEAM                                                                            
 LARGEST CORRECTION TO DISP.        5.883E-08   AT NODE        101   DOF  2
   INSTANCE: BEAM                                                                            
          THE FORCE     EQUILIBRIUM RESPONSE WAS LINEAR IN THIS INCREMENT

 AVERAGE MOMENT                     8.649E-04   TIME AVG. MOMENT      4.362E-04
 LARGEST RESIDUAL MOMENT            4.337E-19   AT NODE        501   DOF  6
   INSTANCE: BEAM                                                                            
 LARGEST INCREMENT OF ROTATION      1.565E-09   AT NODE        101   DOF  6
   INSTANCE: BEAM                                                                            
 LARGEST CORRECTION TO ROTATION     1.099E-09   AT NODE        101   DOF  6
   INSTANCE: BEAM                                                                            
          THE MOMENT    EQUILIBRIUM RESPONSE WAS LINEAR IN THIS INCREMENT

  MAXIMUM HALF-INCREMENT FORCE RESIDUAL IS   1.403E-02 AND OCCURS AT NODE        101 INSTANCE BEAM                                                                            
  MAXIMUM HALF-INCREMENT MOMENT RESIDUAL IS  -1.063E-03 AND OCCURS AT NODE        501 INSTANCE BEAM                                                                            

 ITERATION SUMMARY FOR THE INCREMENT:   1 TOTAL ITERATIONS, OF WHICH
   0 ARE SEVERE DISCONTINUITY ITERATIONS AND  1 ARE EQUILIBRIUM ITERATIONS.

 TIME INCREMENT COMPLETED  1.000E-06,  FRACTION OF STEP COMPLETED  2.000E-04
 STEP TIME COMPLETED       2.000E-06,  TOTAL TIME COMPLETED        2.000E-06


  INCREMENT     3 STARTS. ATTEMPT NUMBER  1, TIME INCREMENT  1.000E-06

  NUMBER OF EQUATIONS =      3006     NUMBER OF RHS =    1
  NUMBER OF FLOATING PT. OPERATIONS =  8.47E+05

     CHECK POINT   START OF SOLVER    

     CHECK POINT  END OF SOLVER       

       ELAPSED USER TIME (SEC)      =   0.0000    
       ELAPSED SYSTEM TIME (SEC)    =   0.0000    
       ELAPSED TOTAL CPU TIME (SEC) =   0.0000    
       ELAPSED WALLCLOCK TIME (SEC) =          0

               CONVERGENCE CHECKS FOR EQUILIBRIUM ITERATION     1


 AVERAGE FORCE                      3.594E-03   TIME AVG. FORCE       2.568E-03
 LARGEST RESIDUAL FORCE             5.204E-18   AT NODE        501   DOF  2
   INSTANCE: BEAM                                                                            
 LARGEST INCREMENT OF DISP.         2.506E-07   AT NODE        101   DOF  2
   INSTANCE: BEAM                                                                            
 LARGEST CORRECTION TO DISP.        1.333E-08   AT NODE        501   DOF  2
   INSTANCE: BEAM                                                                            
          THE FORCE     EQUILIBRIUM RESPONSE WAS LINEAR IN THIS INCREMENT

 AVERAGE MOMENT                     2.436E-03   TIME AVG. MOMENT      1.103E-03
 LARGEST RESIDUAL MOMENT            6.858E-18   AT NODE        101   DOF  6
   INSTANCE: BEAM                                                                            
 LARGEST INCREMENT OF ROTATION      6.676E-09   AT NODE        101   DOF  6
   INSTANCE: BEAM                                                                            
 LARGEST CORRECTION TO ROTATION     2.612E-09   AT NODE        101   DOF  6
   INSTANCE: BEAM                                                                            
          THE MOMENT    EQUILIBRIUM RESPONSE WAS LINEAR IN THIS INCREMENT

  MAXIMUM HALF-INCREMENT FORCE RESIDUAL IS  -4.772E-03 AND OCCURS AT NODE        101 INSTANCE BEAM                                                                            
  MAXIMUM HALF-INCREMENT MOMENT RESIDUAL IS  -6.533E-04 AND OCCURS AT NODE        500 INSTANCE BEAM                                                                            
          TIME INCREMENT MAY NOW INCREASE TO    1.250E-06

 ITERATION SUMMARY FOR THE INCREMENT:   1 TOTAL ITERATIONS, OF WHICH
   0 ARE SEVERE DISCONTINUITY ITERATIONS AND  1 ARE EQUILIBRIUM ITERATIONS.

 TIME INCREMENT COMPLETED  1.000E-06,  FRACTION OF STEP COMPLETED  3.000E-04
 STEP TIME COMPLETED       3.000E-06,  TOTAL TIME COMPLETED        3.000E-06


  INCREMENT     4 STARTS. ATTEMPT NUMBER  1, TIME INCREMENT  1.250E-06

  NUMBER OF EQUATIONS =      3006     NUMBER OF RHS =    1
  NUMBER OF FLOATING PT. OPERATIONS =  8.47E+05

     CHECK POINT   START OF SOLVER    

     CHECK POINT  END OF SOLVER       

       ELAPSED USER TIME (SEC)      =   0.0000    
       ELAPSED SYSTEM TIME (SEC)    =   0.0000    
       ELAPSED TOTAL CPU TIME (SEC) =   0.0000    
       ELAPSED WALLCLOCK TIME (SEC) =          0

               CONVERGENCE CHECKS FOR EQUILIBRIUM ITERATION     1


 AVERAGE FORCE                      9.500E-03   TIME AVG. FORCE       4.301E-03
 LARGEST RESIDUAL FORCE             4.163E-17   AT NODE        101   DOF  2
   INSTANCE: BEAM                                                                            
 LARGEST INCREMENT OF DISP.         9.430E-08   AT NODE        501   DOF  2
   INSTANCE: BEAM                                                                            
 LARGEST CORRECTION TO DISP.       -4.918E-07   AT NODE        101   DOF  2
   INSTANCE: BEAM                                                                            
          THE FORCE     EQUILIBRIUM RESPONSE WAS LINEAR IN THIS INCREMENT

 AVERAGE MOMENT                     2.785E-03   TIME AVG. MOMENT      1.523E-03
 LARGEST RESIDUAL MOMENT           -1.041E-17   AT NODE        500   DOF  6
   INSTANCE: BEAM                                                                            
 LARGEST INCREMENT OF ROTATION      1.754E-08   AT NODE        101   DOF  6
   INSTANCE: BEAM                                                                            
 LARGEST CORRECTION TO ROTATION     2.177E-09   AT NODE        500   DOF  6
   INSTANCE: BEAM                                                                            
          THE MOMENT    EQUILIBRIUM RESPONSE WAS LINEAR IN THIS INCREMENT

  MAXIMUM HALF-INCREMENT FORCE RESIDUAL IS  -7.599E-02 AND OCCURS AT NODE        101 INSTANCE BEAM                                                                            
  MAXIMUM HALF-INCREMENT MOMENT RESIDUAL IS   8.059E-03 AND OCCURS AT NODE        501 INSTANCE BEAM                                                                            
          TIME INCREMENT MAY NOW INCREASE TO    1.562E-06

 ITERATION SUMMARY FOR THE INCREMENT:   1 TOTAL ITERATIONS, OF WHICH
   0 ARE SEVERE DISCONTINUITY ITERATIONS AND  1 ARE EQUILIBRIUM ITERATIONS.

 TIME INCREMENT COMPLETED  1.250E-06,  FRACTION OF STEP COMPLETED  4.250E-04
 STEP TIME COMPLETED       4.250E-06,  TOTAL TIME COMPLETED        4.250E-06


  INCREMENT     5 STARTS. ATTEMPT NUMBER  1, TIME INCREMENT  1.562E-06

  NUMBER OF EQUATIONS =      3006     NUMBER OF RHS =    1
  NUMBER OF FLOATING PT. OPERATIONS =  8.47E+05

     CHECK POINT   START OF SOLVER    

     CHECK POINT  END OF SOLVER       

       ELAPSED USER TIME (SEC)      =   0.0000    
       ELAPSED SYSTEM TIME (SEC)    =   0.0000    
       ELAPSED TOTAL CPU TIME (SEC) =   0.0000    
       ELAPSED WALLCLOCK TIME (SEC) =          0

               CONVERGENCE CHECKS FOR EQUILIBRIUM ITERATION     1


 AVERAGE FORCE                      1.511E-02   TIME AVG. FORCE       6.463E-03
 LARGEST RESIDUAL FORCE             3.469E-17   AT NODE        501   DOF  2
   INSTANCE: BEAM                                                                            
 LARGEST INCREMENT OF DISP.        -1.622E-06   AT NODE        101   DOF  2
   INSTANCE: BEAM                                                                            
 LARGEST CORRECTION TO DISP.       -5.909E-07   AT NODE        101   DOF  2
   INSTANCE: BEAM                                                                            
          THE FORCE     EQUILIBRIUM RESPONSE WAS LINEAR IN THIS INCREMENT

 AVERAGE MOMENT                     7.818E-03   TIME AVG. MOMENT      2.782E-03
 LARGEST RESIDUAL MOMENT            2.082E-17   AT NODE        501   DOF  6
   INSTANCE: BEAM                                                                            
 LARGEST INCREMENT OF ROTATION      1.224E-08   AT NODE        500   DOF  6
   INSTANCE: BEAM                                                                            
 LARGEST CORRECTION TO ROTATION    -4.396E-08   AT NODE        101   DOF  6
   INSTANCE: BEAM                                                                            
          THE MOMENT    EQUILIBRIUM RESPONSE WAS LINEAR IN THIS INCREMENT

  MAXIMUM HALF-INCREMENT FORCE RESIDUAL IS  -4.800E-02 AND OCCURS AT NODE        101 INSTANCE BEAM                                                                            
  MAXIMUM HALF-INCREMENT MOMENT RESIDUAL IS   1.079E-02 AND OCCURS AT NODE        501 INSTANCE BEAM                                                                            
          TIME INCREMENT MAY NOW INCREASE TO    1.953E-06

 ITERATION SUMMARY FOR THE INCREMENT:   1 TOTAL ITERATIONS, OF WHICH
   0 ARE SEVERE DISCONTINUITY ITERATIONS AND  1 ARE EQUILIBRIUM ITERATIONS.

 TIME INCREMENT COMPLETED  1.562E-06,  FRACTION OF STEP COMPLETED  5.812E-04
 STEP TIME COMPLETED       5.812E-06,  TOTAL TIME COMPLETED        5.812E-06


  INCREMENT     6 STARTS. ATTEMPT NUMBER  1, TIME INCREMENT  1.953E-06

  NUMBER OF EQUATIONS =      3006     NUMBER OF RHS =    1
  NUMBER OF FLOATING PT. OPERATIONS =  8.47E+05

     CHECK POINT   START OF SOLVER    

     CHECK POINT  END OF SOLVER       

       ELAPSED USER TIME (SEC)      =   0.0000    
       ELAPSED SYSTEM TIME (SEC)    =   0.0000    
       ELAPSED TOTAL CPU TIME (SEC) =   0.0000    
       ELAPSED WALLCLOCK TIME (SEC) =          0

               CONVERGENCE CHECKS FOR EQUILIBRIUM ITERATION     1


 AVERAGE FORCE                      2.462E-02   TIME AVG. FORCE       9.490E-03
 LARGEST RESIDUAL FORCE            -5.551E-17   AT NODE        101   DOF  2
   INSTANCE: BEAM                                                                            
 LARGEST INCREMENT OF DISP.        -8.697E-07   AT NODE        101   DOF  2
   INSTANCE: BEAM                                                                            
 LARGEST CORRECTION TO DISP.        4.478E-06   AT NODE        101   DOF  2
   INSTANCE: BEAM                                                                            
          THE FORCE     EQUILIBRIUM RESPONSE WAS LINEAR IN THIS INCREMENT

 AVERAGE MOMENT                     1.133E-02   TIME AVG. MOMENT      4.206E-03
 LARGEST RESIDUAL MOMENT           -1.110E-16   AT NODE        501   DOF  6
   INSTANCE: BEAM                                                                            
 LARGEST INCREMENT OF ROTATION     -1.235E-07   AT NODE        101   DOF  6
   INSTANCE: BEAM                                                                            
 LARGEST CORRECTION TO ROTATION    -4.174E-08   AT NODE        500   DOF  6
   INSTANCE: BEAM                                                                            
          THE MOMENT    EQUILIBRIUM RESPONSE WAS LINEAR IN THIS INCREMENT

  MAXIMUM HALF-INCREMENT FORCE RESIDUAL IS   0.343     AND OCCURS AT NODE        101 INSTANCE BEAM                                                                            
  MAXIMUM HALF-INCREMENT MOMENT RESIDUAL IS  -7.146E-02 AND OCCURS AT NODE        501 INSTANCE BEAM                                                                            
          TIME INCREMENT MAY NOW INCREASE TO    2.441E-06

 ITERATION SUMMARY FOR THE INCREMENT:   1 TOTAL ITERATIONS, OF WHICH
   0 ARE SEVERE DISCONTINUITY ITERATIONS AND  1 ARE EQUILIBRIUM ITERATIONS.

 TIME INCREMENT COMPLETED  1.953E-06,  FRACTION OF STEP COMPLETED  7.766E-04
 STEP TIME COMPLETED       7.766E-06,  TOTAL TIME COMPLETED        7.766E-06


  INCREMENT     7 STARTS. ATTEMPT NUMBER  1, TIME INCREMENT  2.441E-06

  NUMBER OF EQUATIONS =      3006     NUMBER OF RHS =    1
  NUMBER OF FLOATING PT. OPERATIONS =  8.47E+05

     CHECK POINT   START OF SOLVER    

     CHECK POINT  END OF SOLVER       

       ELAPSED USER TIME (SEC)      =   0.0000    
       ELAPSED SYSTEM TIME (SEC)    =   0.0000    
       ELAPSED TOTAL CPU TIME (SEC) =   0.0000    
       ELAPSED WALLCLOCK TIME (SEC) =          0

               CONVERGENCE CHECKS FOR EQUILIBRIUM ITERATION     1


 AVERAGE FORCE                      1.913E-02   TIME AVG. FORCE       1.087E-02
 LARGEST RESIDUAL FORCE             4.857E-17   AT NODE        501   DOF  2
   INSTANCE: BEAM                                                                            
 LARGEST INCREMENT OF DISP.         3.562E-06   AT NODE        101   DOF  2
   INSTANCE: BEAM                                                                            
 LARGEST CORRECTION TO DISP.       -2.701E-06   AT NODE        101   DOF  2
   INSTANCE: BEAM                                                                            
          THE FORCE     EQUILIBRIUM RESPONSE WAS LINEAR IN THIS INCREMENT

 AVERAGE MOMENT                     1.917E-02   TIME AVG. MOMENT      6.343E-03
 LARGEST RESIDUAL MOMENT           -1.211E-16   AT NODE        101   DOF  6
   INSTANCE: BEAM                                                                            
 LARGEST INCREMENT OF ROTATION     -1.208E-07   AT NODE        500   DOF  6
   INSTANCE: BEAM                                                                            
 LARGEST CORRECTION TO ROTATION     2.823E-07   AT NODE        101   DOF  6
   INSTANCE: BEAM                                                                            
          THE MOMENT    EQUILIBRIUM RESPONSE WAS LINEAR IN THIS INCREMENT

  MAXIMUM HALF-INCREMENT FORCE RESIDUAL IS  -0.303     AND OCCURS AT NODE        101 INSTANCE BEAM                                                                            
  MAXIMUM HALF-INCREMENT MOMENT RESIDUAL IS   9.406E-02 AND OCCURS AT NODE        101 INSTANCE BEAM                                                                            
          TIME INCREMENT MAY NOW INCREASE TO    3.052E-06

 ITERATION SUMMARY FOR THE INCREMENT:   1 TOTAL ITERATIONS, OF WHICH
   0 ARE SEVERE DISCONTINUITY ITERATIONS AND  1 ARE EQUILIBRIUM ITERATIONS.

 TIME INCREMENT COMPLETED  2.441E-06,  FRACTION OF STEP COMPLETED  1.021E-03
 STEP TIME COMPLETED       1.021E-05,  TOTAL TIME COMPLETED        1.021E-05


  INCREMENT     8 STARTS. ATTEMPT NUMBER  1, TIME INCREMENT  3.052E-06

  NUMBER OF EQUATIONS =      3006     NUMBER OF RHS =    1
  NUMBER OF FLOATING PT. OPERATIONS =  8.47E+05

     CHECK POINT   START OF SOLVER    

     CHECK POINT  END OF SOLVER       

       ELAPSED USER TIME (SEC)      =   0.0000    
       ELAPSED SYSTEM TIME (SEC)    =   0.0000    
       ELAPSED TOTAL CPU TIME (SEC) =   0.0000    
       ELAPSED WALLCLOCK TIME (SEC) =          0

               CONVERGENCE CHECKS FOR EQUILIBRIUM ITERATION     1


 AVERAGE FORCE                      8.530E-03   TIME AVG. FORCE       1.058E-02
 LARGEST RESIDUAL FORCE             6.245E-17   AT NODE        101   DOF  2
   INSTANCE: BEAM                                                                            
 LARGEST INCREMENT OF DISP.         1.490E-06   AT NODE        501   DOF  2
   INSTANCE: BEAM                                                                            
 LARGEST CORRECTION TO DISP.       -8.415E-06   AT NODE        101   DOF  2
   INSTANCE: BEAM                                                                            
          THE FORCE     EQUILIBRIUM RESPONSE WAS LINEAR IN THIS INCREMENT

 AVERAGE MOMENT                     2.064E-02   TIME AVG. MOMENT      8.130E-03
 LARGEST RESIDUAL MOMENT            1.336E-16   AT NODE        101   DOF  6
   INSTANCE: BEAM                                                                            
 LARGEST INCREMENT OF ROTATION      2.771E-07   AT NODE        101   DOF  6
   INSTANCE: BEAM                                                                            
 LARGEST CORRECTION TO ROTATION     2.826E-07   AT NODE        500   DOF  6
   INSTANCE: BEAM                                                                            
          THE MOMENT    EQUILIBRIUM RESPONSE WAS LINEAR IN THIS INCREMENT

  MAXIMUM HALF-INCREMENT FORCE RESIDUAL IS   5.750E-02 AND OCCURS AT NODE        501 INSTANCE BEAM                                                                            
  MAXIMUM HALF-INCREMENT MOMENT RESIDUAL IS   0.116     AND OCCURS AT NODE        500 INSTANCE BEAM                                                                            
          TIME INCREMENT MAY NOW INCREASE TO    3.815E-06

 ITERATION SUMMARY FOR THE INCREMENT:   1 TOTAL ITERATIONS, OF WHICH
   0 ARE SEVERE DISCONTINUITY ITERATIONS AND  1 ARE EQUILIBRIUM ITERATIONS.

 TIME INCREMENT COMPLETED  3.052E-06,  FRACTION OF STEP COMPLETED  1.326E-03
 STEP TIME COMPLETED       1.326E-05,  TOTAL TIME COMPLETED        1.326E-05


  INCREMENT     9 STARTS. ATTEMPT NUMBER  1, TIME INCREMENT  3.815E-06

  NUMBER OF EQUATIONS =      3006     NUMBER OF RHS =    1
  NUMBER OF FLOATING PT. OPERATIONS =  8.47E+05

     CHECK POINT   START OF SOLVER    

     CHECK POINT  END OF SOLVER       

       ELAPSED USER TIME (SEC)      =   0.0000    
       ELAPSED SYSTEM TIME (SEC)    =   0.0000    
       ELAPSED TOTAL CPU TIME (SEC) =   0.0000    
       ELAPSED WALLCLOCK TIME (SEC) =          0

               CONVERGENCE CHECKS FOR EQUILIBRIUM ITERATION     1


 AVERAGE FORCE                      2.638E-02   TIME AVG. FORCE       1.233E-02
 LARGEST RESIDUAL FORCE            -1.110E-16   AT NODE        101   DOF  2
   INSTANCE: BEAM                                                                            
 LARGEST INCREMENT OF DISP.        -1.060E-05   AT NODE        101   DOF  2
   INSTANCE: BEAM                                                                            
 LARGEST CORRECTION TO DISP.       -7.078E-06   AT NODE        501   DOF  2
   INSTANCE: BEAM                                                                            
          THE FORCE     EQUILIBRIUM RESPONSE WAS LINEAR IN THIS INCREMENT

 AVERAGE MOMENT                     3.591E-02   TIME AVG. MOMENT      1.122E-02
 LARGEST RESIDUAL MOMENT           -6.661E-16   AT NODE        501   DOF  6
   INSTANCE: BEAM                                                                            
 LARGEST INCREMENT OF ROTATION     -3.789E-07   AT NODE        101   DOF  6
   INSTANCE: BEAM                                                                            
 LARGEST CORRECTION TO ROTATION    -1.080E-06   AT NODE        101   DOF  6
   INSTANCE: BEAM                                                                            
          THE MOMENT    EQUILIBRIUM RESPONSE WAS LINEAR IN THIS INCREMENT

  MAXIMUM HALF-INCREMENT FORCE RESIDUAL IS  -0.169     AND OCCURS AT NODE        501 INSTANCE BEAM                                                                            
  MAXIMUM HALF-INCREMENT MOMENT RESIDUAL IS  -0.189     AND OCCURS AT NODE        501 INSTANCE BEAM                                                                            
          TIME INCREMENT MAY NOW INCREASE TO    4.768E-06

 ITERATION SUMMARY FOR THE INCREMENT:   1 TOTAL ITERATIONS, OF WHICH
   0 ARE SEVERE DISCONTINUITY ITERATIONS AND  1 ARE EQUILIBRIUM ITERATIONS.

 TIME INCREMENT COMPLETED  3.815E-06,  FRACTION OF STEP COMPLETED  1.707E-03
 STEP TIME COMPLETED       1.707E-05,  TOTAL TIME COMPLETED        1.707E-05


  INCREMENT    10 STARTS. ATTEMPT NUMBER  1, TIME INCREMENT  4.768E-06

  NUMBER OF EQUATIONS =      3006     NUMBER OF RHS =    1
  NUMBER OF FLOATING PT. OPERATIONS =  8.47E+05

     CHECK POINT   START OF SOLVER    

     CHECK POINT  END OF SOLVER       

       ELAPSED USER TIME (SEC)      =   0.0000    
       ELAPSED SYSTEM TIME (SEC)    =   0.0000    
       ELAPSED TOTAL CPU TIME (SEC) =   0.0000    
       ELAPSED WALLCLOCK TIME (SEC) =          0

               CONVERGENCE CHECKS FOR EQUILIBRIUM ITERATION     1


 AVERAGE FORCE                      3.269E-02   TIME AVG. FORCE       1.437E-02
 LARGEST RESIDUAL FORCE            -1.249E-16   AT NODE        500   DOF  2
   INSTANCE: BEAM                                                                            
 LARGEST INCREMENT OF DISP.        -5.877E-06   AT NODE        501   DOF  2
   INSTANCE: BEAM                                                                            
 LARGEST CORRECTION TO DISP.        2.704E-05   AT NODE        101   DOF  2
   INSTANCE: BEAM                                                                            
          THE FORCE     EQUILIBRIUM RESPONSE WAS LINEAR IN THIS INCREMENT

 AVERAGE MOMENT                     5.076E-02   TIME AVG. MOMENT      1.517E-02
 LARGEST RESIDUAL MOMENT            6.384E-16   AT NODE        501   DOF  6
   INSTANCE: BEAM                                                                            
 LARGEST INCREMENT OF ROTATION     -8.605E-07   AT NODE        501   DOF  6
   INSTANCE: BEAM                                                                            
 LARGEST CORRECTION TO ROTATION     2.194E-06   AT NODE        101   DOF  6
   INSTANCE: BEAM                                                                            
          THE MOMENT    EQUILIBRIUM RESPONSE WAS LINEAR IN THIS INCREMENT

  MAXIMUM HALF-INCREMENT FORCE RESIDUAL IS   0.776     AND OCCURS AT NODE        101 INSTANCE BEAM                                                                            
  MAXIMUM HALF-INCREMENT MOMENT RESIDUAL IS  -0.479     AND OCCURS AT NODE        500 INSTANCE BEAM                                                                            
          TIME INCREMENT MAY NOW INCREASE TO    5.960E-06

 ITERATION SUMMARY FOR THE INCREMENT:   1 TOTAL ITERATIONS, OF WHICH
   0 ARE SEVERE DISCONTINUITY ITERATIONS AND  1 ARE EQUILIBRIUM ITERATIONS.

 TIME INCREMENT COMPLETED  4.768E-06,  FRACTION OF STEP COMPLETED  2.184E-03
 STEP TIME COMPLETED       2.184E-05,  TOTAL TIME COMPLETED        2.184E-05


  INCREMENT    11 STARTS. ATTEMPT NUMBER  1, TIME INCREMENT  5.960E-06

  NUMBER OF EQUATIONS =      3006     NUMBER OF RHS =    1
  NUMBER OF FLOATING PT. OPERATIONS =  8.47E+05

     CHECK POINT   START OF SOLVER    

     CHECK POINT  END OF SOLVER       

       ELAPSED USER TIME (SEC)      =   0.0000    
       ELAPSED SYSTEM TIME (SEC)    =   0.0000    
       ELAPSED TOTAL CPU TIME (SEC) =   0.0000    
       ELAPSED WALLCLOCK TIME (SEC) =          0

               CONVERGENCE CHECKS FOR EQUILIBRIUM ITERATION     1


 AVERAGE FORCE                      4.068E-02   TIME AVG. FORCE       1.676E-02
 LARGEST RESIDUAL FORCE             6.661E-16   AT NODE        501   DOF  2
   INSTANCE: BEAM                                                                            
 LARGEST INCREMENT OF DISP.         3.168E-05   AT NODE        101   DOF  2
   INSTANCE: BEAM                                                                            
 LARGEST CORRECTION TO DISP.       -3.834E-05   AT NODE        101   DOF  2
   INSTANCE: BEAM                                                                            
          THE FORCE     EQUILIBRIUM RESPONSE WAS LINEAR IN THIS INCREMENT

 AVERAGE MOMENT                     8.178E-02   TIME AVG. MOMENT      2.123E-02
 LARGEST RESIDUAL MOMENT            1.998E-15   AT NODE        499   DOF  6
   INSTANCE: BEAM                                                                            
 LARGEST INCREMENT OF ROTATION      3.156E-06   AT NODE        101   DOF  6
   INSTANCE: BEAM                                                                            
 LARGEST CORRECTION TO ROTATION     4.321E-06   AT NODE        500   DOF  6
   INSTANCE: BEAM                                                                            
          THE MOMENT    EQUILIBRIUM RESPONSE WAS LINEAR IN THIS INCREMENT

  MAXIMUM HALF-INCREMENT FORCE RESIDUAL IS   -1.02     AND OCCURS AT NODE        101 INSTANCE BEAM                                                                            
  MAXIMUM HALF-INCREMENT MOMENT RESIDUAL IS   0.904     AND OCCURS AT NODE        501 INSTANCE BEAM                                                                            
          TIME INCREMENT MAY NOW INCREASE TO    7.451E-06

 ITERATION SUMMARY FOR THE INCREMENT:   1 TOTAL ITERATIONS, OF WHICH
   0 ARE SEVERE DISCONTINUITY ITERATIONS AND  1 ARE EQUILIBRIUM ITERATIONS.

 TIME INCREMENT COMPLETED  5.960E-06,  FRACTION OF STEP COMPLETED  2.780E-03
 STEP TIME COMPLETED       2.780E-05,  TOTAL TIME COMPLETED        2.780E-05


  INCREMENT    12 STARTS. ATTEMPT NUMBER  1, TIME INCREMENT  7.451E-06

  NUMBER OF EQUATIONS =      3006     NUMBER OF RHS =    1
  NUMBER OF FLOATING PT. OPERATIONS =  8.47E+05

     CHECK POINT   START OF SOLVER    

     CHECK POINT  END OF SOLVER       

       ELAPSED USER TIME (SEC)      =   0.0000    
       ELAPSED SYSTEM TIME (SEC)    =   0.0000    
       ELAPSED TOTAL CPU TIME (SEC) =   0.0000    
       ELAPSED WALLCLOCK TIME (SEC) =          0

               CONVERGENCE CHECKS FOR EQUILIBRIUM ITERATION     1


 AVERAGE FORCE                      3.069E-02   TIME AVG. FORCE       1.792E-02
 LARGEST RESIDUAL FORCE             1.416E-15   AT NODE        501   DOF  2
   INSTANCE: BEAM                                                                            
 LARGEST INCREMENT OF DISP.         3.739E-05   AT NODE        501   DOF  2
   INSTANCE: BEAM                                                                            
 LARGEST CORRECTION TO DISP.       -4.730E-05   AT NODE        501   DOF  2
   INSTANCE: BEAM                                                                            
          THE FORCE     EQUILIBRIUM RESPONSE WAS LINEAR IN THIS INCREMENT

 AVERAGE MOMENT                     0.174       TIME AVG. MOMENT      3.399E-02
 LARGEST RESIDUAL MOMENT           -3.331E-15   AT NODE        500   DOF  6
   INSTANCE: BEAM                                                                            
 LARGEST INCREMENT OF ROTATION      6.026E-06   AT NODE        500   DOF  6
   INSTANCE: BEAM                                                                            
 LARGEST CORRECTION TO ROTATION    -7.752E-06   AT NODE        501   DOF  6
   INSTANCE: BEAM                                                                            
          THE MOMENT    EQUILIBRIUM RESPONSE WAS LINEAR IN THIS INCREMENT

  MAXIMUM HALF-INCREMENT FORCE RESIDUAL IS   -1.28     AND OCCURS AT NODE        501 INSTANCE BEAM                                                                            
  MAXIMUM HALF-INCREMENT MOMENT RESIDUAL IS   -1.44     AND OCCURS AT NODE        501 INSTANCE BEAM                                                                            
          TIME INCREMENT MAY NOW INCREASE TO    9.313E-06

 ITERATION SUMMARY FOR THE INCREMENT:   1 TOTAL ITERATIONS, OF WHICH
   0 ARE SEVERE DISCONTINUITY ITERATIONS AND  1 ARE EQUILIBRIUM ITERATIONS.

 TIME INCREMENT COMPLETED  7.451E-06,  FRACTION OF STEP COMPLETED  3.525E-03
 STEP TIME COMPLETED       3.525E-05,  TOTAL TIME COMPLETED        3.525E-05


  INCREMENT    13 STARTS. ATTEMPT NUMBER  1, TIME INCREMENT  9.313E-06

  NUMBER OF EQUATIONS =      3006     NUMBER OF RHS =    1
  NUMBER OF FLOATING PT. OPERATIONS =  8.47E+05

     CHECK POINT   START OF SOLVER    

     CHECK POINT  END OF SOLVER       

       ELAPSED USER TIME (SEC)      =   0.0000    
       ELAPSED SYSTEM TIME (SEC)    =   0.0000    
       ELAPSED TOTAL CPU TIME (SEC) =   0.0000    
       ELAPSED WALLCLOCK TIME (SEC) =          0

               CONVERGENCE CHECKS FOR EQUILIBRIUM ITERATION     1


 AVERAGE FORCE                      3.801E-02   TIME AVG. FORCE       1.947E-02
 LARGEST RESIDUAL FORCE            -7.459E-16   AT NODE        501   DOF  2
   INSTANCE: BEAM                                                                            
 LARGEST INCREMENT OF DISP.         4.097E-05   AT NODE        101   DOF  2
   INSTANCE: BEAM                                                                            
 LARGEST CORRECTION TO DISP.       -4.191E-05   AT NODE        500   DOF  2
   INSTANCE: BEAM                                                                            
          THE FORCE     EQUILIBRIUM RESPONSE WAS LINEAR IN THIS INCREMENT

 AVERAGE MOMENT                     0.163       TIME AVG. MOMENT      4.391E-02
 LARGEST RESIDUAL MOMENT           -5.995E-15   AT NODE        100   DOF  6
   INSTANCE: BEAM                                                                            
 LARGEST INCREMENT OF ROTATION      4.905E-06   AT NODE        100   DOF  6
   INSTANCE: BEAM                                                                            
 LARGEST CORRECTION TO ROTATION    -1.130E-05   AT NODE        499   DOF  6
   INSTANCE: BEAM                                                                            
          THE MOMENT    EQUILIBRIUM RESPONSE WAS LINEAR IN THIS INCREMENT

  MAXIMUM HALF-INCREMENT FORCE RESIDUAL IS    1.52     AND OCCURS AT NODE        501 INSTANCE BEAM                                                                            
  MAXIMUM HALF-INCREMENT MOMENT RESIDUAL IS   -1.82     AND OCCURS AT NODE        499 INSTANCE BEAM                                                                            
          TIME INCREMENT MAY NOW INCREASE TO    1.164E-05

 ITERATION SUMMARY FOR THE INCREMENT:   1 TOTAL ITERATIONS, OF WHICH
   0 ARE SEVERE DISCONTINUITY ITERATIONS AND  1 ARE EQUILIBRIUM ITERATIONS.

 TIME INCREMENT COMPLETED  9.313E-06,  FRACTION OF STEP COMPLETED  4.457E-03
 STEP TIME COMPLETED       4.457E-05,  TOTAL TIME COMPLETED        4.457E-05


  INCREMENT    14 STARTS. ATTEMPT NUMBER  1, TIME INCREMENT  1.164E-05

  NUMBER OF EQUATIONS =      3006     NUMBER OF RHS =    1
  NUMBER OF FLOATING PT. OPERATIONS =  8.47E+05

     CHECK POINT   START OF SOLVER    

     CHECK POINT  END OF SOLVER       

       ELAPSED USER TIME (SEC)      =   0.0000    
       ELAPSED SYSTEM TIME (SEC)    =   0.0000    
       ELAPSED TOTAL CPU TIME (SEC) =   0.0000    
       ELAPSED WALLCLOCK TIME (SEC) =          0

               CONVERGENCE CHECKS FOR EQUILIBRIUM ITERATION     1


 AVERAGE FORCE                      3.193E-02   TIME AVG. FORCE       2.036E-02
 LARGEST RESIDUAL FORCE            -1.192E-15   AT NODE        101   DOF  2
   INSTANCE: BEAM                                                                            
 LARGEST INCREMENT OF DISP.         3.974E-05   AT NODE        100   DOF  2
   INSTANCE: BEAM                                                                            
 LARGEST CORRECTION TO DISP.       -6.355E-05   AT NODE        101   DOF  2
   INSTANCE: BEAM                                                                            
          THE FORCE     EQUILIBRIUM RESPONSE WAS LINEAR IN THIS INCREMENT

 AVERAGE MOMENT                     0.122       TIME AVG. MOMENT      4.950E-02
 LARGEST RESIDUAL MOMENT            3.941E-15   AT NODE        100   DOF  6
   INSTANCE: BEAM                                                                            
 LARGEST INCREMENT OF ROTATION      2.369E-06   AT NODE        495   DOF  6
   INSTANCE: BEAM                                                                            
 LARGEST CORRECTION TO ROTATION     1.460E-05   AT NODE        500   DOF  6
   INSTANCE: BEAM                                                                            
          THE MOMENT    EQUILIBRIUM RESPONSE WAS LINEAR IN THIS INCREMENT

  MAXIMUM HALF-INCREMENT FORCE RESIDUAL IS   -1.35     AND OCCURS AT NODE        501 INSTANCE BEAM                                                                            
  MAXIMUM HALF-INCREMENT MOMENT RESIDUAL IS    2.80     AND OCCURS AT NODE        499 INSTANCE BEAM                                                                            
          TIME INCREMENT MAY NOW INCREASE TO    1.455E-05

 ITERATION SUMMARY FOR THE INCREMENT:   1 TOTAL ITERATIONS, OF WHICH
   0 ARE SEVERE DISCONTINUITY ITERATIONS AND  1 ARE EQUILIBRIUM ITERATIONS.

 TIME INCREMENT COMPLETED  1.164E-05,  FRACTION OF STEP COMPLETED  5.621E-03
 STEP TIME COMPLETED       5.621E-05,  TOTAL TIME COMPLETED        5.621E-05


  INCREMENT    15 STARTS. ATTEMPT NUMBER  1, TIME INCREMENT  1.455E-05

  NUMBER OF EQUATIONS =      3006     NUMBER OF RHS =    1
  NUMBER OF FLOATING PT. OPERATIONS =  8.47E+05

     CHECK POINT   START OF SOLVER    

     CHECK POINT  END OF SOLVER       

       ELAPSED USER TIME (SEC)      =   0.0000    
       ELAPSED SYSTEM TIME (SEC)    =   0.0000    
       ELAPSED TOTAL CPU TIME (SEC) =   0.0000    
       ELAPSED WALLCLOCK TIME (SEC) =          0

               CONVERGENCE CHECKS FOR EQUILIBRIUM ITERATION     1


 AVERAGE FORCE                      2.655E-02   TIME AVG. FORCE       2.077E-02
 LARGEST RESIDUAL FORCE             2.526E-15   AT NODE        500   DOF  2
   INSTANCE: BEAM                                                                            
 LARGEST INCREMENT OF DISP.         4.426E-05   AT NODE        496   DOF  2
   INSTANCE: BEAM                                                                            
 LARGEST CORRECTION TO DISP.        8.967E-05   AT NODE        101   DOF  2
   INSTANCE: BEAM                                                                            
          THE FORCE     EQUILIBRIUM RESPONSE WAS LINEAR IN THIS INCREMENT

 AVERAGE MOMENT                     0.122       TIME AVG. MOMENT      5.430E-02
 LARGEST RESIDUAL MOMENT            5.052E-15   AT NODE        100   DOF  6
   INSTANCE: BEAM                                                                            
 LARGEST INCREMENT OF ROTATION      2.789E-06   AT NODE         99   DOF  6
   INSTANCE: BEAM                                                                            
 LARGEST CORRECTION TO ROTATION     1.451E-05   AT NODE        100   DOF  6
   INSTANCE: BEAM                                                                            
          THE MOMENT    EQUILIBRIUM RESPONSE WAS LINEAR IN THIS INCREMENT

  MAXIMUM HALF-INCREMENT FORCE RESIDUAL IS   -1.76     AND OCCURS AT NODE        500 INSTANCE BEAM                                                                            
  MAXIMUM HALF-INCREMENT MOMENT RESIDUAL IS   -3.56     AND OCCURS AT NODE        500 INSTANCE BEAM                                                                            
          TIME INCREMENT MAY NOW INCREASE TO    1.819E-05

 ITERATION SUMMARY FOR THE INCREMENT:   1 TOTAL ITERATIONS, OF WHICH
   0 ARE SEVERE DISCONTINUITY ITERATIONS AND  1 ARE EQUILIBRIUM ITERATIONS.

 TIME INCREMENT COMPLETED  1.455E-05,  FRACTION OF STEP COMPLETED  7.076E-03
 STEP TIME COMPLETED       7.076E-05,  TOTAL TIME COMPLETED        7.076E-05


  INCREMENT    16 STARTS. ATTEMPT NUMBER  1, TIME INCREMENT  1.819E-05

  NUMBER OF EQUATIONS =      3006     NUMBER OF RHS =    1
  NUMBER OF FLOATING PT. OPERATIONS =  8.47E+05

     CHECK POINT   START OF SOLVER    

     CHECK POINT  END OF SOLVER       

       ELAPSED USER TIME (SEC)      =   0.0000    
       ELAPSED SYSTEM TIME (SEC)    =   0.0000    
       ELAPSED TOTAL CPU TIME (SEC) =   0.0000    
       ELAPSED WALLCLOCK TIME (SEC) =          0

               CONVERGENCE CHECKS FOR EQUILIBRIUM ITERATION     1


 AVERAGE FORCE                      2.253E-02   TIME AVG. FORCE       2.088E-02
 LARGEST RESIDUAL FORCE            -3.131E-15   AT NODE        500   DOF  2
   INSTANCE: BEAM                                                                            
 LARGEST INCREMENT OF DISP.         4.579E-05   AT NODE         99   DOF  2
   INSTANCE: BEAM                                                                            
 LARGEST CORRECTION TO DISP.       -7.712E-05   AT NODE        101   DOF  2
   INSTANCE: BEAM                                                                            
          THE FORCE     EQUILIBRIUM RESPONSE WAS LINEAR IN THIS INCREMENT

 AVERAGE MOMENT                     0.129       TIME AVG. MOMENT      5.895E-02
 LARGEST RESIDUAL MOMENT           -7.716E-15   AT NODE        100   DOF  6
   INSTANCE: BEAM                                                                            
 LARGEST INCREMENT OF ROTATION      3.908E-06   AT NODE        491   DOF  6
   INSTANCE: BEAM                                                                            
 LARGEST CORRECTION TO ROTATION    -2.105E-05   AT NODE        100   DOF  6
   INSTANCE: BEAM                                                                            
          THE MOMENT    EQUILIBRIUM RESPONSE WAS LINEAR IN THIS INCREMENT

  MAXIMUM HALF-INCREMENT FORCE RESIDUAL IS    2.10     AND OCCURS AT NODE        500 INSTANCE BEAM                                                                            
  MAXIMUM HALF-INCREMENT MOMENT RESIDUAL IS    5.49     AND OCCURS AT NODE        500 INSTANCE BEAM                                                                            
          TIME INCREMENT MAY NOW INCREASE TO    2.274E-05

 ITERATION SUMMARY FOR THE INCREMENT:   1 TOTAL ITERATIONS, OF WHICH
   0 ARE SEVERE DISCONTINUITY ITERATIONS AND  1 ARE EQUILIBRIUM ITERATIONS.

 TIME INCREMENT COMPLETED  1.819E-05,  FRACTION OF STEP COMPLETED  8.895E-03
 STEP TIME COMPLETED       8.895E-05,  TOTAL TIME COMPLETED        8.895E-05


  INCREMENT    17 STARTS. ATTEMPT NUMBER  1, TIME INCREMENT  2.274E-05

  NUMBER OF EQUATIONS =      3006     NUMBER OF RHS =    1
  NUMBER OF FLOATING PT. OPERATIONS =  8.47E+05

     CHECK POINT   START OF SOLVER    

     CHECK POINT  END OF SOLVER       

       ELAPSED USER TIME (SEC)      =   0.0000    
       ELAPSED SYSTEM TIME (SEC)    =   0.0000    
       ELAPSED TOTAL CPU TIME (SEC) =   0.0000    
       ELAPSED WALLCLOCK TIME (SEC) =          0

               CONVERGENCE CHECKS FOR EQUILIBRIUM ITERATION     1


 AVERAGE FORCE                      2.236E-02   TIME AVG. FORCE       2.097E-02
 LARGEST RESIDUAL FORCE            -2.151E-15   AT NODE        501   DOF  2
   INSTANCE: BEAM                                                                            
 LARGEST INCREMENT OF DISP.         4.355E-05   AT NODE        491   DOF  2
   INSTANCE: BEAM                                                                            
 LARGEST CORRECTION TO DISP.       -1.036E-04   AT NODE        501   DOF  2
   INSTANCE: BEAM                                                                            
          THE FORCE     EQUILIBRIUM RESPONSE WAS LINEAR IN THIS INCREMENT

 AVERAGE MOMENT                     0.119       TIME AVG. MOMENT      6.247E-02
 LARGEST RESIDUAL MOMENT            1.116E-14   AT NODE        100   DOF  6
   INSTANCE: BEAM                                                                            
 LARGEST INCREMENT OF ROTATION      3.839E-06   AT NODE        487   DOF  6
   INSTANCE: BEAM                                                                            
 LARGEST CORRECTION TO ROTATION     2.478E-05   AT NODE        498   DOF  6
   INSTANCE: BEAM                                                                            
          THE MOMENT    EQUILIBRIUM RESPONSE WAS LINEAR IN THIS INCREMENT

  MAXIMUM HALF-INCREMENT FORCE RESIDUAL IS    2.71     AND OCCURS AT NODE        101 INSTANCE BEAM                                                                            
  MAXIMUM HALF-INCREMENT MOMENT RESIDUAL IS   -7.74     AND OCCURS AT NODE        500 INSTANCE BEAM                                                                            
          TIME INCREMENT MAY NOW INCREASE TO    2.842E-05

 ITERATION SUMMARY FOR THE INCREMENT:   1 TOTAL ITERATIONS, OF WHICH
   0 ARE SEVERE DISCONTINUITY ITERATIONS AND  1 ARE EQUILIBRIUM ITERATIONS.

 TIME INCREMENT COMPLETED  2.274E-05,  FRACTION OF STEP COMPLETED  1.117E-02
 STEP TIME COMPLETED       1.117E-04,  TOTAL TIME COMPLETED        1.117E-04


  INCREMENT    18 STARTS. ATTEMPT NUMBER  1, TIME INCREMENT  2.842E-05

  NUMBER OF EQUATIONS =      3006     NUMBER OF RHS =    1
  NUMBER OF FLOATING PT. OPERATIONS =  8.47E+05

     CHECK POINT   START OF SOLVER    

     CHECK POINT  END OF SOLVER       

       ELAPSED USER TIME (SEC)      =   0.0000    
       ELAPSED SYSTEM TIME (SEC)    =   0.0000    
       ELAPSED TOTAL CPU TIME (SEC) =   0.0000    
       ELAPSED WALLCLOCK TIME (SEC) =          0

               CONVERGENCE CHECKS FOR EQUILIBRIUM ITERATION     1


 AVERAGE FORCE                      1.981E-02   TIME AVG. FORCE       2.090E-02
 LARGEST RESIDUAL FORCE            -2.887E-15   AT NODE        496   DOF  2
   INSTANCE: BEAM                                                                            
 LARGEST INCREMENT OF DISP.         4.208E-05   AT NODE        495   DOF  2
   INSTANCE: BEAM                                                                            
 LARGEST CORRECTION TO DISP.        1.240E-04   AT NODE        501   DOF  2
   INSTANCE: BEAM                                                                            
          THE FORCE     EQUILIBRIUM RESPONSE WAS LINEAR IN THIS INCREMENT

 AVERAGE MOMENT                     0.120       TIME AVG. MOMENT      6.566E-02
 LARGEST RESIDUAL MOMENT            7.994E-15   AT NODE        100   DOF  6
   INSTANCE: BEAM                                                                            
 LARGEST INCREMENT OF ROTATION      3.801E-06   AT NODE        483   DOF  6
   INSTANCE: BEAM                                                                            
 LARGEST CORRECTION TO ROTATION    -2.609E-05   AT NODE        498   DOF  6
   INSTANCE: BEAM                                                                            
          THE MOMENT    EQUILIBRIUM RESPONSE WAS LINEAR IN THIS INCREMENT

  MAXIMUM HALF-INCREMENT FORCE RESIDUAL IS    4.64     AND OCCURS AT NODE        501 INSTANCE BEAM                                                                            
  MAXIMUM HALF-INCREMENT MOMENT RESIDUAL IS    10.4     AND OCCURS AT NODE        500 INSTANCE BEAM                                                                            
          TIME INCREMENT MAY NOW INCREASE TO    3.553E-05

 ITERATION SUMMARY FOR THE INCREMENT:   1 TOTAL ITERATIONS, OF WHICH
   0 ARE SEVERE DISCONTINUITY ITERATIONS AND  1 ARE EQUILIBRIUM ITERATIONS.

 TIME INCREMENT COMPLETED  2.842E-05,  FRACTION OF STEP COMPLETED  1.401E-02
 STEP TIME COMPLETED       1.401E-04,  TOTAL TIME COMPLETED        1.401E-04


  INCREMENT    19 STARTS. ATTEMPT NUMBER  1, TIME INCREMENT  3.553E-05

  NUMBER OF EQUATIONS =      3006     NUMBER OF RHS =    1
  NUMBER OF FLOATING PT. OPERATIONS =  8.47E+05

     CHECK POINT   START OF SOLVER    

     CHECK POINT  END OF SOLVER       

       ELAPSED USER TIME (SEC)      =   0.0000    
       ELAPSED SYSTEM TIME (SEC)    =   0.0000    
       ELAPSED TOTAL CPU TIME (SEC) =   0.0000    
       ELAPSED WALLCLOCK TIME (SEC) =          1

               CONVERGENCE CHECKS FOR EQUILIBRIUM ITERATION     1


 AVERAGE FORCE                      1.678E-02   TIME AVG. FORCE       2.069E-02
 LARGEST RESIDUAL FORCE             4.539E-15   AT NODE        498   DOF  2
   INSTANCE: BEAM                                                                            
 LARGEST INCREMENT OF DISP.         4.594E-05   AT NODE        493   DOF  2
   INSTANCE: BEAM                                                                            
 LARGEST CORRECTION TO DISP.       -1.280E-04   AT NODE        501   DOF  2
   INSTANCE: BEAM                                                                            
          THE FORCE     EQUILIBRIUM RESPONSE WAS LINEAR IN THIS INCREMENT

 AVERAGE MOMENT                     0.113       TIME AVG. MOMENT      6.815E-02
 LARGEST RESIDUAL MOMENT           -1.088E-14   AT NODE        499   DOF  6
   INSTANCE: BEAM                                                                            
 LARGEST INCREMENT OF ROTATION      3.923E-06   AT NODE        479   DOF  6
   INSTANCE: BEAM                                                                            
 LARGEST CORRECTION TO ROTATION     2.501E-05   AT NODE        498   DOF  6
   INSTANCE: BEAM                                                                            
          THE MOMENT    EQUILIBRIUM RESPONSE WAS LINEAR IN THIS INCREMENT

  MAXIMUM HALF-INCREMENT FORCE RESIDUAL IS   -8.01     AND OCCURS AT NODE        501 INSTANCE BEAM                                                                            
  MAXIMUM HALF-INCREMENT MOMENT RESIDUAL IS   -13.4     AND OCCURS AT NODE        500 INSTANCE BEAM                                                                            
          TIME INCREMENT MAY NOW INCREASE TO    4.441E-05

 ITERATION SUMMARY FOR THE INCREMENT:   1 TOTAL ITERATIONS, OF WHICH
   0 ARE SEVERE DISCONTINUITY ITERATIONS AND  1 ARE EQUILIBRIUM ITERATIONS.

 TIME INCREMENT COMPLETED  3.553E-05,  FRACTION OF STEP COMPLETED  1.756E-02
 STEP TIME COMPLETED       1.756E-04,  TOTAL TIME COMPLETED        1.756E-04


  INCREMENT    20 STARTS. ATTEMPT NUMBER  1, TIME INCREMENT  4.441E-05

  NUMBER OF EQUATIONS =      3006     NUMBER OF RHS =    1
  NUMBER OF FLOATING PT. OPERATIONS =  8.47E+05

     CHECK POINT   START OF SOLVER    

     CHECK POINT  END OF SOLVER       

       ELAPSED USER TIME (SEC)      =   0.0000    
       ELAPSED SYSTEM TIME (SEC)    =   0.0000    
       ELAPSED TOTAL CPU TIME (SEC) =   0.0000    
       ELAPSED WALLCLOCK TIME (SEC) =          0

               CONVERGENCE CHECKS FOR EQUILIBRIUM ITERATION     1


 AVERAGE FORCE                      1.491E-02   TIME AVG. FORCE       2.040E-02
 LARGEST RESIDUAL FORCE            -4.857E-15   AT NODE        500   DOF  2
   INSTANCE: BEAM                                                                            
 LARGEST INCREMENT OF DISP.        -5.247E-05   AT NODE        469   DOF  2
   INSTANCE: BEAM                                                                            
 LARGEST CORRECTION TO DISP.        1.340E-04   AT NODE        501   DOF  2
   INSTANCE: BEAM                                                                            
          THE FORCE     EQUILIBRIUM RESPONSE WAS LINEAR IN THIS INCREMENT

 AVERAGE MOMENT                     0.107       TIME AVG. MOMENT      7.008E-02
 LARGEST RESIDUAL MOMENT            1.127E-14   AT NODE        100   DOF  6
   INSTANCE: BEAM                                                                            
 LARGEST INCREMENT OF ROTATION      4.032E-06   AT NODE        474   DOF  6
   INSTANCE: BEAM                                                                            
 LARGEST CORRECTION TO ROTATION     2.280E-05   AT NODE         99   DOF  6
   INSTANCE: BEAM                                                                            
          THE MOMENT    EQUILIBRIUM RESPONSE WAS LINEAR IN THIS INCREMENT

  MAXIMUM HALF-INCREMENT FORCE RESIDUAL IS    12.5     AND OCCURS AT NODE        501 INSTANCE BEAM                                                                            
  MAXIMUM HALF-INCREMENT MOMENT RESIDUAL IS    17.0     AND OCCURS AT NODE        500 INSTANCE BEAM                                                                            
          TIME INCREMENT MAY NOW INCREASE TO    5.551E-05

 ITERATION SUMMARY FOR THE INCREMENT:   1 TOTAL ITERATIONS, OF WHICH
   0 ARE SEVERE DISCONTINUITY ITERATIONS AND  1 ARE EQUILIBRIUM ITERATIONS.

 TIME INCREMENT COMPLETED  4.441E-05,  FRACTION OF STEP COMPLETED  2.200E-02
 STEP TIME COMPLETED       2.200E-04,  TOTAL TIME COMPLETED        2.200E-04


  INCREMENT    21 STARTS. ATTEMPT NUMBER  1, TIME INCREMENT  5.551E-05

  NUMBER OF EQUATIONS =      3006     NUMBER OF RHS =    1
  NUMBER OF FLOATING PT. OPERATIONS =  8.47E+05

     CHECK POINT   START OF SOLVER    

     CHECK POINT  END OF SOLVER       

       ELAPSED USER TIME (SEC)      =   0.0000    
       ELAPSED SYSTEM TIME (SEC)    =   0.0000    
       ELAPSED TOTAL CPU TIME (SEC) =   0.0000    
       ELAPSED WALLCLOCK TIME (SEC) =          0

               CONVERGENCE CHECKS FOR EQUILIBRIUM ITERATION     1


 AVERAGE FORCE                      1.312E-02   TIME AVG. FORCE       2.005E-02
 LARGEST RESIDUAL FORCE            -1.197E-14   AT NODE        501   DOF  2
   INSTANCE: BEAM                                                                            
 LARGEST INCREMENT OF DISP.        -6.177E-05   AT NODE        463   DOF  2
   INSTANCE: BEAM                                                                            
 LARGEST CORRECTION TO DISP.       -1.296E-04   AT NODE        501   DOF  2
   INSTANCE: BEAM                                                                            
          THE FORCE     EQUILIBRIUM RESPONSE WAS LINEAR IN THIS INCREMENT

 AVERAGE MOMENT                     9.945E-02   TIME AVG. MOMENT      7.148E-02
 LARGEST RESIDUAL MOMENT            1.782E-14   AT NODE        496   DOF  6
   INSTANCE: BEAM                                                                            
 LARGEST INCREMENT OF ROTATION      4.039E-06   AT NODE        469   DOF  6
   INSTANCE: BEAM                                                                            
 LARGEST CORRECTION TO ROTATION    -3.224E-05   AT NODE        496   DOF  6
   INSTANCE: BEAM                                                                            
          THE MOMENT    EQUILIBRIUM RESPONSE WAS LINEAR IN THIS INCREMENT

  MAXIMUM HALF-INCREMENT FORCE RESIDUAL IS   -18.6     AND OCCURS AT NODE        501 INSTANCE BEAM                                                                            
  MAXIMUM HALF-INCREMENT MOMENT RESIDUAL IS    23.6     AND OCCURS AT NODE        498 INSTANCE BEAM                                                                            

 ITERATION SUMMARY FOR THE INCREMENT:   1 TOTAL ITERATIONS, OF WHICH
   0 ARE SEVERE DISCONTINUITY ITERATIONS AND  1 ARE EQUILIBRIUM ITERATIONS.

 TIME INCREMENT COMPLETED  5.551E-05,  FRACTION OF STEP COMPLETED  2.756E-02
 STEP TIME COMPLETED       2.756E-04,  TOTAL TIME COMPLETED        2.756E-04


  INCREMENT    22 STARTS. ATTEMPT NUMBER  1, TIME INCREMENT  5.551E-05

  NUMBER OF EQUATIONS =      3006     NUMBER OF RHS =    1
  NUMBER OF FLOATING PT. OPERATIONS =  8.47E+05

     CHECK POINT   START OF SOLVER    

     CHECK POINT  END OF SOLVER       

       ELAPSED USER TIME (SEC)      =   0.0000    
       ELAPSED SYSTEM TIME (SEC)    =   0.0000    
       ELAPSED TOTAL CPU TIME (SEC) =   0.0000    
       ELAPSED WALLCLOCK TIME (SEC) =          0

               CONVERGENCE CHECKS FOR EQUILIBRIUM ITERATION     1


 AVERAGE FORCE                      1.182E-02   TIME AVG. FORCE       1.968E-02
 LARGEST RESIDUAL FORCE            -3.737E-15   AT NODE        499   DOF  2
   INSTANCE: BEAM                                                                            
 LARGEST INCREMENT OF DISP.        -6.349E-05   AT NODE        457   DOF  2
   INSTANCE: BEAM                                                                            
 LARGEST CORRECTION TO DISP.       -1.142E-04   AT NODE        500   DOF  2
   INSTANCE: BEAM                                                                            
          THE FORCE     EQUILIBRIUM RESPONSE WAS LINEAR IN THIS INCREMENT

 AVERAGE MOMENT                     9.305E-02   TIME AVG. MOMENT      7.246E-02
 LARGEST RESIDUAL MOMENT           -1.368E-14   AT NODE        496   DOF  6
   INSTANCE: BEAM                                                                            
 LARGEST INCREMENT OF ROTATION      3.659E-06   AT NODE        463   DOF  6
   INSTANCE: BEAM                                                                            
 LARGEST CORRECTION TO ROTATION     3.047E-05   AT NODE        496   DOF  6
   INSTANCE: BEAM                                                                            
          THE MOMENT    EQUILIBRIUM RESPONSE WAS LINEAR IN THIS INCREMENT

  MAXIMUM HALF-INCREMENT FORCE RESIDUAL IS    17.6     AND OCCURS AT NODE        501 INSTANCE BEAM                                                                            
  MAXIMUM HALF-INCREMENT MOMENT RESIDUAL IS   -21.0     AND OCCURS AT NODE        498 INSTANCE BEAM                                                                            

 ITERATION SUMMARY FOR THE INCREMENT:   1 TOTAL ITERATIONS, OF WHICH
   0 ARE SEVERE DISCONTINUITY ITERATIONS AND  1 ARE EQUILIBRIUM ITERATIONS.

 TIME INCREMENT COMPLETED  5.551E-05,  FRACTION OF STEP COMPLETED  3.311E-02
 STEP TIME COMPLETED       3.311E-04,  TOTAL TIME COMPLETED        3.311E-04


  INCREMENT    23 STARTS. ATTEMPT NUMBER  1, TIME INCREMENT  5.551E-05

  NUMBER OF EQUATIONS =      3006     NUMBER OF RHS =    1
  NUMBER OF FLOATING PT. OPERATIONS =  8.47E+05

     CHECK POINT   START OF SOLVER    

     CHECK POINT  END OF SOLVER       

       ELAPSED USER TIME (SEC)      =   0.0000    
       ELAPSED SYSTEM TIME (SEC)    =   0.0000    
       ELAPSED TOTAL CPU TIME (SEC) =   0.0000    
       ELAPSED WALLCLOCK TIME (SEC) =          0

               CONVERGENCE CHECKS FOR EQUILIBRIUM ITERATION     1


 AVERAGE FORCE                      1.035E-02   TIME AVG. FORCE       1.927E-02
 LARGEST RESIDUAL FORCE             4.219E-15   AT NODE        488   DOF  2
   INSTANCE: BEAM                                                                            
 LARGEST INCREMENT OF DISP.        -6.238E-05   AT NODE        451   DOF  2
   INSTANCE: BEAM                                                                            
 LARGEST CORRECTION TO DISP.        1.142E-04   AT NODE        500   DOF  2
   INSTANCE: BEAM                                                                            
          THE FORCE     EQUILIBRIUM RESPONSE WAS LINEAR IN THIS INCREMENT

 AVERAGE MOMENT                     8.714E-02   TIME AVG. MOMENT      7.310E-02
 LARGEST RESIDUAL MOMENT            1.737E-14   AT NODE        496   DOF  6
   INSTANCE: BEAM                                                                            
 LARGEST INCREMENT OF ROTATION     -3.176E-06   AT NODE        444   DOF  6
   INSTANCE: BEAM                                                                            
 LARGEST CORRECTION TO ROTATION    -3.031E-05   AT NODE        496   DOF  6
   INSTANCE: BEAM                                                                            
          THE MOMENT    EQUILIBRIUM RESPONSE WAS LINEAR IN THIS INCREMENT

  MAXIMUM HALF-INCREMENT FORCE RESIDUAL IS   -16.5     AND OCCURS AT NODE        501 INSTANCE BEAM                                                                            
  MAXIMUM HALF-INCREMENT MOMENT RESIDUAL IS    18.4     AND OCCURS AT NODE        498 INSTANCE BEAM                                                                            

 ITERATION SUMMARY FOR THE INCREMENT:   1 TOTAL ITERATIONS, OF WHICH
   0 ARE SEVERE DISCONTINUITY ITERATIONS AND  1 ARE EQUILIBRIUM ITERATIONS.

 TIME INCREMENT COMPLETED  5.551E-05,  FRACTION OF STEP COMPLETED  3.866E-02
 STEP TIME COMPLETED       3.866E-04,  TOTAL TIME COMPLETED        3.866E-04


  INCREMENT    24 STARTS. ATTEMPT NUMBER  1, TIME INCREMENT  5.551E-05

  NUMBER OF EQUATIONS =      3006     NUMBER OF RHS =    1
  NUMBER OF FLOATING PT. OPERATIONS =  8.47E+05

     CHECK POINT   START OF SOLVER    

     CHECK POINT  END OF SOLVER       

       ELAPSED USER TIME (SEC)      =   0.0000    
       ELAPSED SYSTEM TIME (SEC)    =   0.0000    
       ELAPSED TOTAL CPU TIME (SEC) =   0.0000    
       ELAPSED WALLCLOCK TIME (SEC) =          0

               CONVERGENCE CHECKS FOR EQUILIBRIUM ITERATION     1


 AVERAGE FORCE                      9.505E-03   TIME AVG. FORCE       1.886E-02
 LARGEST RESIDUAL FORCE             4.968E-15   AT NODE         97   DOF  2
   INSTANCE: BEAM                                                                            
 LARGEST INCREMENT OF DISP.        -6.286E-05   AT NODE        445   DOF  2
   INSTANCE: BEAM                                                                            
 LARGEST CORRECTION TO DISP.       -1.090E-04   AT NODE        500   DOF  2
   INSTANCE: BEAM                                                                            
          THE FORCE     EQUILIBRIUM RESPONSE WAS LINEAR IN THIS INCREMENT

 AVERAGE MOMENT                     8.065E-02   TIME AVG. MOMENT      7.341E-02
 LARGEST RESIDUAL MOMENT           -1.146E-14   AT NODE        497   DOF  6
   INSTANCE: BEAM                                                                            
 LARGEST INCREMENT OF ROTATION     -3.461E-06   AT NODE        438   DOF  6
   INSTANCE: BEAM                                                                            
 LARGEST CORRECTION TO ROTATION     2.891E-05   AT NODE        497   DOF  6
   INSTANCE: BEAM                                                                            
          THE MOMENT    EQUILIBRIUM RESPONSE WAS LINEAR IN THIS INCREMENT

  MAXIMUM HALF-INCREMENT FORCE RESIDUAL IS    15.3     AND OCCURS AT NODE        501 INSTANCE BEAM                                                                            
  MAXIMUM HALF-INCREMENT MOMENT RESIDUAL IS   -15.9     AND OCCURS AT NODE        498 INSTANCE BEAM                                                                            

 ITERATION SUMMARY FOR THE INCREMENT:   1 TOTAL ITERATIONS, OF WHICH
   0 ARE SEVERE DISCONTINUITY ITERATIONS AND  1 ARE EQUILIBRIUM ITERATIONS.

 TIME INCREMENT COMPLETED  5.551E-05,  FRACTION OF STEP COMPLETED  4.421E-02
 STEP TIME COMPLETED       4.421E-04,  TOTAL TIME COMPLETED        4.421E-04


  INCREMENT    25 STARTS. ATTEMPT NUMBER  1, TIME INCREMENT  5.551E-05

  NUMBER OF EQUATIONS =      3006     NUMBER OF RHS =    1
  NUMBER OF FLOATING PT. OPERATIONS =  8.47E+05

     CHECK POINT   START OF SOLVER    

     CHECK POINT  END OF SOLVER       

       ELAPSED USER TIME (SEC)      =   0.0000    
       ELAPSED SYSTEM TIME (SEC)    =   0.0000    
       ELAPSED TOTAL CPU TIME (SEC) =   0.0000    
       ELAPSED WALLCLOCK TIME (SEC) =          0

               CONVERGENCE CHECKS FOR EQUILIBRIUM ITERATION     1


 AVERAGE FORCE                      8.526E-03   TIME AVG. FORCE       1.845E-02
 LARGEST RESIDUAL FORCE             5.954E-15   AT NODE        498   DOF  2
   INSTANCE: BEAM                                                                            
 LARGEST INCREMENT OF DISP.        -5.603E-05   AT NODE        439   DOF  2
   INSTANCE: BEAM                                                                            
 LARGEST CORRECTION TO DISP.        1.030E-04   AT NODE        500   DOF  2
   INSTANCE: BEAM                                                                            
          THE FORCE     EQUILIBRIUM RESPONSE WAS LINEAR IN THIS INCREMENT

 AVERAGE MOMENT                     7.586E-02   TIME AVG. MOMENT      7.351E-02
 LARGEST RESIDUAL MOMENT            1.264E-14   AT NODE        495   DOF  6
   INSTANCE: BEAM                                                                            
 LARGEST INCREMENT OF ROTATION     -3.395E-06   AT NODE        432   DOF  6
   INSTANCE: BEAM                                                                            
 LARGEST CORRECTION TO ROTATION    -2.813E-05   AT NODE        497   DOF  6
   INSTANCE: BEAM                                                                            
          THE MOMENT    EQUILIBRIUM RESPONSE WAS LINEAR IN THIS INCREMENT

  MAXIMUM HALF-INCREMENT FORCE RESIDUAL IS   -14.1     AND OCCURS AT NODE        501 INSTANCE BEAM                                                                            
  MAXIMUM HALF-INCREMENT MOMENT RESIDUAL IS    13.5     AND OCCURS AT NODE        498 INSTANCE BEAM                                                                            

 ITERATION SUMMARY FOR THE INCREMENT:   1 TOTAL ITERATIONS, OF WHICH
   0 ARE SEVERE DISCONTINUITY ITERATIONS AND  1 ARE EQUILIBRIUM ITERATIONS.

 TIME INCREMENT COMPLETED  5.551E-05,  FRACTION OF STEP COMPLETED  4.976E-02
 STEP TIME COMPLETED       4.976E-04,  TOTAL TIME COMPLETED        4.976E-04


  INCREMENT    26 STARTS. ATTEMPT NUMBER  1, TIME INCREMENT  5.551E-05

  NUMBER OF EQUATIONS =      3006     NUMBER OF RHS =    1
  NUMBER OF FLOATING PT. OPERATIONS =  8.47E+05

     CHECK POINT   START OF SOLVER    

     CHECK POINT  END OF SOLVER       

       ELAPSED USER TIME (SEC)      =   0.0000    
       ELAPSED SYSTEM TIME (SEC)    =   0.0000    
       ELAPSED TOTAL CPU TIME (SEC) =   0.0000    
       ELAPSED WALLCLOCK TIME (SEC) =          0

               CONVERGENCE CHECKS FOR EQUILIBRIUM ITERATION     1


 AVERAGE FORCE                      7.819E-03   TIME AVG. FORCE       1.804E-02
 LARGEST RESIDUAL FORCE             6.474E-15   AT NODE        486   DOF  2
   INSTANCE: BEAM                                                                            
 LARGEST INCREMENT OF DISP.        -5.350E-05   AT NODE        433   DOF  2
   INSTANCE: BEAM                                                                            
 LARGEST CORRECTION TO DISP.       -9.464E-05   AT NODE        500   DOF  2
   INSTANCE: BEAM                                                                            
          THE FORCE     EQUILIBRIUM RESPONSE WAS LINEAR IN THIS INCREMENT

 AVERAGE MOMENT                     7.210E-02   TIME AVG. MOMENT      7.346E-02
 LARGEST RESIDUAL MOMENT           -1.267E-14   AT NODE        497   DOF  6
   INSTANCE: BEAM                                                                            
 LARGEST INCREMENT OF ROTATION     -3.477E-06   AT NODE         82   DOF  6
   INSTANCE: BEAM                                                                            
 LARGEST CORRECTION TO ROTATION     2.638E-05   AT NODE        497   DOF  6
   INSTANCE: BEAM                                                                            
          THE MOMENT    EQUILIBRIUM RESPONSE WAS LINEAR IN THIS INCREMENT

  MAXIMUM HALF-INCREMENT FORCE RESIDUAL IS    12.8     AND OCCURS AT NODE        501 INSTANCE BEAM                                                                            
  MAXIMUM HALF-INCREMENT MOMENT RESIDUAL IS   -13.0     AND OCCURS AT NODE        499 INSTANCE BEAM                                                                            

 ITERATION SUMMARY FOR THE INCREMENT:   1 TOTAL ITERATIONS, OF WHICH
   0 ARE SEVERE DISCONTINUITY ITERATIONS AND  1 ARE EQUILIBRIUM ITERATIONS.

 TIME INCREMENT COMPLETED  5.551E-05,  FRACTION OF STEP COMPLETED  5.531E-02
 STEP TIME COMPLETED       5.531E-04,  TOTAL TIME COMPLETED        5.531E-04


  INCREMENT    27 STARTS. ATTEMPT NUMBER  1, TIME INCREMENT  5.551E-05

  NUMBER OF EQUATIONS =      3006     NUMBER OF RHS =    1
  NUMBER OF FLOATING PT. OPERATIONS =  8.47E+05

     CHECK POINT   START OF SOLVER    

     CHECK POINT  END OF SOLVER       

       ELAPSED USER TIME (SEC)      =   0.0000    
       ELAPSED SYSTEM TIME (SEC)    =   0.0000    
       ELAPSED TOTAL CPU TIME (SEC) =   0.0000    
       ELAPSED WALLCLOCK TIME (SEC) =          0

               CONVERGENCE CHECKS FOR EQUILIBRIUM ITERATION     1


 AVERAGE FORCE                      7.280E-03   TIME AVG. FORCE       1.764E-02
 LARGEST RESIDUAL FORCE             1.099E-14   AT NODE        500   DOF  2
   INSTANCE: BEAM                                                                            
 LARGEST INCREMENT OF DISP.        -5.017E-05   AT NODE        427   DOF  2
   INSTANCE: BEAM                                                                            
 LARGEST CORRECTION TO DISP.        8.660E-05   AT NODE        500   DOF  2
   INSTANCE: BEAM                                                                            
          THE FORCE     EQUILIBRIUM RESPONSE WAS LINEAR IN THIS INCREMENT

 AVERAGE MOMENT                     6.728E-02   TIME AVG. MOMENT      7.323E-02
 LARGEST RESIDUAL MOMENT           -1.948E-14   AT NODE        498   DOF  6
   INSTANCE: BEAM                                                                            
 LARGEST INCREMENT OF ROTATION     -3.336E-06   AT NODE        420   DOF  6
   INSTANCE: BEAM                                                                            
 LARGEST CORRECTION TO ROTATION    -2.386E-05   AT NODE        497   DOF  6
   INSTANCE: BEAM                                                                            
          THE MOMENT    EQUILIBRIUM RESPONSE WAS LINEAR IN THIS INCREMENT

  MAXIMUM HALF-INCREMENT FORCE RESIDUAL IS   -11.6     AND OCCURS AT NODE        501 INSTANCE BEAM                                                                            
  MAXIMUM HALF-INCREMENT MOMENT RESIDUAL IS    13.1     AND OCCURS AT NODE        499 INSTANCE BEAM                                                                            

 ITERATION SUMMARY FOR THE INCREMENT:   1 TOTAL ITERATIONS, OF WHICH
   0 ARE SEVERE DISCONTINUITY ITERATIONS AND  1 ARE EQUILIBRIUM ITERATIONS.

 TIME INCREMENT COMPLETED  5.551E-05,  FRACTION OF STEP COMPLETED  6.086E-02
 STEP TIME COMPLETED       6.086E-04,  TOTAL TIME COMPLETED        6.086E-04


  INCREMENT    28 STARTS. ATTEMPT NUMBER  1, TIME INCREMENT  5.551E-05

  NUMBER OF EQUATIONS =      3006     NUMBER OF RHS =    1
  NUMBER OF FLOATING PT. OPERATIONS =  8.47E+05

     CHECK POINT   START OF SOLVER    

     CHECK POINT  END OF SOLVER       

       ELAPSED USER TIME (SEC)      =   0.0000    
       ELAPSED SYSTEM TIME (SEC)    =   0.0000    
       ELAPSED TOTAL CPU TIME (SEC) =   0.0000    
       ELAPSED WALLCLOCK TIME (SEC) =          0

               CONVERGENCE CHECKS FOR EQUILIBRIUM ITERATION     1


 AVERAGE FORCE                      6.701E-03   TIME AVG. FORCE       1.725E-02
 LARGEST RESIDUAL FORCE            -8.920E-15   AT NODE        100   DOF  2
   INSTANCE: BEAM                                                                            
 LARGEST INCREMENT OF DISP.         4.767E-05   AT NODE        406   DOF  2
   INSTANCE: BEAM                                                                            
 LARGEST CORRECTION TO DISP.       -7.814E-05   AT NODE        500   DOF  2
   INSTANCE: BEAM                                                                            
          THE FORCE     EQUILIBRIUM RESPONSE WAS LINEAR IN THIS INCREMENT

 AVERAGE MOMENT                     6.444E-02   TIME AVG. MOMENT      7.291E-02
 LARGEST RESIDUAL MOMENT           -1.101E-14   AT NODE        500   DOF  6
   INSTANCE: BEAM                                                                            
 LARGEST INCREMENT OF ROTATION     -3.259E-06   AT NODE        414   DOF  6
   INSTANCE: BEAM                                                                            
 LARGEST CORRECTION TO ROTATION     2.091E-05   AT NODE        497   DOF  6
   INSTANCE: BEAM                                                                            
          THE MOMENT    EQUILIBRIUM RESPONSE WAS LINEAR IN THIS INCREMENT

  MAXIMUM HALF-INCREMENT FORCE RESIDUAL IS    10.4     AND OCCURS AT NODE        501 INSTANCE BEAM                                                                            
  MAXIMUM HALF-INCREMENT MOMENT RESIDUAL IS   -12.9     AND OCCURS AT NODE        499 INSTANCE BEAM                                                                            

 ITERATION SUMMARY FOR THE INCREMENT:   1 TOTAL ITERATIONS, OF WHICH
   0 ARE SEVERE DISCONTINUITY ITERATIONS AND  1 ARE EQUILIBRIUM ITERATIONS.

 TIME INCREMENT COMPLETED  5.551E-05,  FRACTION OF STEP COMPLETED  6.641E-02
 STEP TIME COMPLETED       6.641E-04,  TOTAL TIME COMPLETED        6.641E-04


  INCREMENT    29 STARTS. ATTEMPT NUMBER  1, TIME INCREMENT  5.551E-05

  NUMBER OF EQUATIONS =      3006     NUMBER OF RHS =    1
  NUMBER OF FLOATING PT. OPERATIONS =  8.47E+05

     CHECK POINT   START OF SOLVER    

     CHECK POINT  END OF SOLVER       

       ELAPSED USER TIME (SEC)      =   0.0000    
       ELAPSED SYSTEM TIME (SEC)    =   0.0000    
       ELAPSED TOTAL CPU TIME (SEC) =   0.0000    
       ELAPSED WALLCLOCK TIME (SEC) =          0

               CONVERGENCE CHECKS FOR EQUILIBRIUM ITERATION     1


[...]
   INSTANCE: BEAM                                                                            
 LARGEST INCREMENT OF ROTATION     -1.301E-06   AT NODE        162   DOF  6
   INSTANCE: BEAM                                                                            
 LARGEST CORRECTION TO ROTATION     4.794E-07   AT NODE        166   DOF  6
   INSTANCE: BEAM                                                                            
          THE MOMENT    EQUILIBRIUM RESPONSE WAS LINEAR IN THIS INCREMENT

  MAXIMUM HALF-INCREMENT FORCE RESIDUAL IS  -2.807E-03 AND OCCURS AT NODE        498 INSTANCE BEAM                                                                            
  MAXIMUM HALF-INCREMENT MOMENT RESIDUAL IS  -5.097E-03 AND OCCURS AT NODE        500 INSTANCE BEAM                                                                            

 ITERATION SUMMARY FOR THE INCREMENT:   1 TOTAL ITERATIONS, OF WHICH
   0 ARE SEVERE DISCONTINUITY ITERATIONS AND  1 ARE EQUILIBRIUM ITERATIONS.

 TIME INCREMENT COMPLETED  1.000E-04,  FRACTION OF STEP COMPLETED  0.934    
 STEP TIME COMPLETED       9.344E-03,  TOTAL TIME COMPLETED        9.344E-03


  INCREMENT   118 STARTS. ATTEMPT NUMBER  1, TIME INCREMENT  1.000E-04

  NUMBER OF EQUATIONS =      3006     NUMBER OF RHS =    1
  NUMBER OF FLOATING PT. OPERATIONS =  8.47E+05

     CHECK POINT   START OF SOLVER    

     CHECK POINT  END OF SOLVER       

       ELAPSED USER TIME (SEC)      =   0.0000    
       ELAPSED SYSTEM TIME (SEC)    =   0.0000    
       ELAPSED TOTAL CPU TIME (SEC) =   0.0000    
       ELAPSED WALLCLOCK TIME (SEC) =          0

               CONVERGENCE CHECKS FOR EQUILIBRIUM ITERATION     1


 AVERAGE FORCE                      1.471E-03   TIME AVG. FORCE       5.469E-03
 LARGEST RESIDUAL FORCE            -3.744E-14   AT NODE         98   DOF  2
   INSTANCE: BEAM                                                                            
 LARGEST INCREMENT OF DISP.        -4.131E-05   AT NODE        172   DOF  2
   INSTANCE: BEAM                                                                            
 LARGEST CORRECTION TO DISP.        1.461E-05   AT NODE        123   DOF  2
   INSTANCE: BEAM                                                                            
          THE FORCE     EQUILIBRIUM RESPONSE WAS LINEAR IN THIS INCREMENT

 AVERAGE MOMENT                     5.092E-02   TIME AVG. MOMENT      5.029E-02
 LARGEST RESIDUAL MOMENT           -2.562E-14   AT NODE        501   DOF  6
   INSTANCE: BEAM                                                                            
 LARGEST INCREMENT OF ROTATION     -1.193E-06   AT NODE         15   DOF  6
   INSTANCE: BEAM                                                                            
 LARGEST CORRECTION TO ROTATION    -6.837E-07   AT NODE        136   DOF  6
   INSTANCE: BEAM                                                                            
          THE MOMENT    EQUILIBRIUM RESPONSE WAS LINEAR IN THIS INCREMENT

  MAXIMUM HALF-INCREMENT FORCE RESIDUAL IS   2.583E-03 AND OCCURS AT NODE        498 INSTANCE BEAM                                                                            
  MAXIMUM HALF-INCREMENT MOMENT RESIDUAL IS   4.650E-03 AND OCCURS AT NODE        500 INSTANCE BEAM                                                                            

 ITERATION SUMMARY FOR THE INCREMENT:   1 TOTAL ITERATIONS, OF WHICH
   0 ARE SEVERE DISCONTINUITY ITERATIONS AND  1 ARE EQUILIBRIUM ITERATIONS.

 TIME INCREMENT COMPLETED  1.000E-04,  FRACTION OF STEP COMPLETED  0.944    
 STEP TIME COMPLETED       9.444E-03,  TOTAL TIME COMPLETED        9.444E-03


  INCREMENT   119 STARTS. ATTEMPT NUMBER  1, TIME INCREMENT  1.000E-04

  NUMBER OF EQUATIONS =      3006     NUMBER OF RHS =    1
  NUMBER OF FLOATING PT. OPERATIONS =  8.47E+05

     CHECK POINT   START OF SOLVER    

     CHECK POINT  END OF SOLVER       

       ELAPSED USER TIME (SEC)      =   0.0000    
       ELAPSED SYSTEM TIME (SEC)    =   0.0000    
       ELAPSED TOTAL CPU TIME (SEC) =   0.0000    
       ELAPSED WALLCLOCK TIME (SEC) =          0

               CONVERGENCE CHECKS FOR EQUILIBRIUM ITERATION     1


 AVERAGE FORCE                      1.383E-03   TIME AVG. FORCE       5.435E-03
 LARGEST RESIDUAL FORCE            -6.089E-14   AT NODE        485   DOF  2
   INSTANCE: BEAM                                                                            
 LARGEST INCREMENT OF DISP.         3.220E-05   AT NODE        101   DOF  2
   INSTANCE: BEAM                                                                            
 LARGEST CORRECTION TO DISP.       -8.674E-06   AT NODE        143   DOF  2
   INSTANCE: BEAM                                                                            
          THE FORCE     EQUILIBRIUM RESPONSE WAS LINEAR IN THIS INCREMENT

 AVERAGE MOMENT                     4.634E-02   TIME AVG. MOMENT      5.026E-02
 LARGEST RESIDUAL MOMENT           -4.485E-14   AT NODE         97   DOF  6
   INSTANCE: BEAM                                                                            
 LARGEST INCREMENT OF ROTATION     -7.960E-07   AT NODE        147   DOF  6
   INSTANCE: BEAM                                                                            
 LARGEST CORRECTION TO ROTATION    -4.386E-07   AT NODE        132   DOF  6
   INSTANCE: BEAM                                                                            
          THE MOMENT    EQUILIBRIUM RESPONSE WAS LINEAR IN THIS INCREMENT

  MAXIMUM HALF-INCREMENT FORCE RESIDUAL IS  -2.345E-03 AND OCCURS AT NODE        498 INSTANCE BEAM                                                                            
  MAXIMUM HALF-INCREMENT MOMENT RESIDUAL IS  -4.188E-03 AND OCCURS AT NODE        500 INSTANCE BEAM                                                                            

 ITERATION SUMMARY FOR THE INCREMENT:   1 TOTAL ITERATIONS, OF WHICH
   0 ARE SEVERE DISCONTINUITY ITERATIONS AND  1 ARE EQUILIBRIUM ITERATIONS.

 TIME INCREMENT COMPLETED  1.000E-04,  FRACTION OF STEP COMPLETED  0.954    
 STEP TIME COMPLETED       9.544E-03,  TOTAL TIME COMPLETED        9.544E-03


  INCREMENT   120 STARTS. ATTEMPT NUMBER  1, TIME INCREMENT  1.000E-04

  NUMBER OF EQUATIONS =      3006     NUMBER OF RHS =    1
  NUMBER OF FLOATING PT. OPERATIONS =  8.47E+05

     CHECK POINT   START OF SOLVER    

     CHECK POINT  END OF SOLVER       

       ELAPSED USER TIME (SEC)      =   0.0000    
       ELAPSED SYSTEM TIME (SEC)    =   0.0000    
       ELAPSED TOTAL CPU TIME (SEC) =   0.0000    
       ELAPSED WALLCLOCK TIME (SEC) =          0

               CONVERGENCE CHECKS FOR EQUILIBRIUM ITERATION     1


 AVERAGE FORCE                      9.010E-04   TIME AVG. FORCE       5.397E-03
 LARGEST RESIDUAL FORCE             4.171E-14   AT NODE        495   DOF  2
   INSTANCE: BEAM                                                                            
 LARGEST INCREMENT OF DISP.        -4.201E-05   AT NODE        153   DOF  2
   INSTANCE: BEAM                                                                            
 LARGEST CORRECTION TO DISP.       -9.720E-06   AT NODE        125   DOF  2
   INSTANCE: BEAM                                                                            
          THE FORCE     EQUILIBRIUM RESPONSE WAS LINEAR IN THIS INCREMENT

 AVERAGE MOMENT                     3.693E-02   TIME AVG. MOMENT      5.015E-02
 LARGEST RESIDUAL MOMENT           -2.529E-14   AT NODE        459   DOF  6
   INSTANCE: BEAM                                                                            
 LARGEST INCREMENT OF ROTATION     -1.634E-06   AT NODE        138   DOF  6
   INSTANCE: BEAM                                                                            
 LARGEST CORRECTION TO ROTATION     4.158E-07   AT NODE        138   DOF  6
   INSTANCE: BEAM                                                                            
          THE MOMENT    EQUILIBRIUM RESPONSE WAS LINEAR IN THIS INCREMENT

  MAXIMUM HALF-INCREMENT FORCE RESIDUAL IS   2.141E-03 AND OCCURS AT NODE        498 INSTANCE BEAM                                                                            
  MAXIMUM HALF-INCREMENT MOMENT RESIDUAL IS   3.787E-03 AND OCCURS AT NODE        500 INSTANCE BEAM                                                                            

 ITERATION SUMMARY FOR THE INCREMENT:   1 TOTAL ITERATIONS, OF WHICH
   0 ARE SEVERE DISCONTINUITY ITERATIONS AND  1 ARE EQUILIBRIUM ITERATIONS.

 TIME INCREMENT COMPLETED  1.000E-04,  FRACTION OF STEP COMPLETED  0.964    
 STEP TIME COMPLETED       9.644E-03,  TOTAL TIME COMPLETED        9.644E-03


  INCREMENT   121 STARTS. ATTEMPT NUMBER  1, TIME INCREMENT  1.000E-04

  NUMBER OF EQUATIONS =      3006     NUMBER OF RHS =    1
  NUMBER OF FLOATING PT. OPERATIONS =  8.47E+05

     CHECK POINT   START OF SOLVER    

     CHECK POINT  END OF SOLVER       

       ELAPSED USER TIME (SEC)      =   0.0000    
       ELAPSED SYSTEM TIME (SEC)    =   0.0000    
       ELAPSED TOTAL CPU TIME (SEC) =   0.0000    
       ELAPSED WALLCLOCK TIME (SEC) =          0

               CONVERGENCE CHECKS FOR EQUILIBRIUM ITERATION     1


 AVERAGE FORCE                      1.193E-03   TIME AVG. FORCE       5.363E-03
 LARGEST RESIDUAL FORCE            -5.151E-14   AT NODE        487   DOF  2
   INSTANCE: BEAM                                                                            
 LARGEST INCREMENT OF DISP.         4.311E-05   AT NODE        101   DOF  2
   INSTANCE: BEAM                                                                            
 LARGEST CORRECTION TO DISP.       -1.977E-05   AT NODE        122   DOF  2
   INSTANCE: BEAM                                                                            
          THE FORCE     EQUILIBRIUM RESPONSE WAS LINEAR IN THIS INCREMENT

 AVERAGE MOMENT                     3.936E-02   TIME AVG. MOMENT      5.006E-02
 LARGEST RESIDUAL MOMENT            3.780E-14   AT NODE        484   DOF  6
   INSTANCE: BEAM                                                                            
 LARGEST INCREMENT OF ROTATION     -1.624E-06   AT NODE         10   DOF  6
   INSTANCE: BEAM                                                                            
 LARGEST CORRECTION TO ROTATION     8.217E-07   AT NODE        134   DOF  6
   INSTANCE: BEAM                                                                            
          THE MOMENT    EQUILIBRIUM RESPONSE WAS LINEAR IN THIS INCREMENT

  MAXIMUM HALF-INCREMENT FORCE RESIDUAL IS  -1.973E-03 AND OCCURS AT NODE        501 INSTANCE BEAM                                                                            
  MAXIMUM HALF-INCREMENT MOMENT RESIDUAL IS  -3.454E-03 AND OCCURS AT NODE        500 INSTANCE BEAM                                                                            

 ITERATION SUMMARY FOR THE INCREMENT:   1 TOTAL ITERATIONS, OF WHICH
   0 ARE SEVERE DISCONTINUITY ITERATIONS AND  1 ARE EQUILIBRIUM ITERATIONS.

 TIME INCREMENT COMPLETED  1.000E-04,  FRACTION OF STEP COMPLETED  0.974    
 STEP TIME COMPLETED       9.744E-03,  TOTAL TIME COMPLETED        9.744E-03


  INCREMENT   122 STARTS. ATTEMPT NUMBER  1, TIME INCREMENT  1.000E-04

  NUMBER OF EQUATIONS =      3006     NUMBER OF RHS =    1
  NUMBER OF FLOATING PT. OPERATIONS =  8.47E+05

     CHECK POINT   START OF SOLVER    

     CHECK POINT  END OF SOLVER       

       ELAPSED USER TIME (SEC)      =   0.0000    
       ELAPSED SYSTEM TIME (SEC)    =   0.0000    
       ELAPSED TOTAL CPU TIME (SEC) =   0.0000    
       ELAPSED WALLCLOCK TIME (SEC) =          0

               CONVERGENCE CHECKS FOR EQUILIBRIUM ITERATION     1


 AVERAGE FORCE                      1.193E-03   TIME AVG. FORCE       5.328E-03
 LARGEST RESIDUAL FORCE             4.563E-14   AT NODE        485   DOF  2
   INSTANCE: BEAM                                                                            
 LARGEST INCREMENT OF DISP.         4.433E-05   AT NODE        101   DOF  2
   INSTANCE: BEAM                                                                            
 LARGEST CORRECTION TO DISP.       -1.030E-05   AT NODE        122   DOF  2
   INSTANCE: BEAM                                                                            
          THE FORCE     EQUILIBRIUM RESPONSE WAS LINEAR IN THIS INCREMENT

 AVERAGE MOMENT                     3.724E-02   TIME AVG. MOMENT      4.995E-02
 LARGEST RESIDUAL MOMENT            2.842E-14   AT NODE        498   DOF  6
   INSTANCE: BEAM                                                                            
 LARGEST INCREMENT OF ROTATION      9.437E-07   AT NODE        225   DOF  6
   INSTANCE: BEAM                                                                            
 LARGEST CORRECTION TO ROTATION     3.955E-07   AT NODE        135   DOF  6
   INSTANCE: BEAM                                                                            
          THE MOMENT    EQUILIBRIUM RESPONSE WAS LINEAR IN THIS INCREMENT

  MAXIMUM HALF-INCREMENT FORCE RESIDUAL IS   1.917E-03 AND OCCURS AT NODE        501 INSTANCE BEAM                                                                            
  MAXIMUM HALF-INCREMENT MOMENT RESIDUAL IS   3.147E-03 AND OCCURS AT NODE        500 INSTANCE BEAM                                                                            

 ITERATION SUMMARY FOR THE INCREMENT:   1 TOTAL ITERATIONS, OF WHICH
   0 ARE SEVERE DISCONTINUITY ITERATIONS AND  1 ARE EQUILIBRIUM ITERATIONS.

 TIME INCREMENT COMPLETED  1.000E-04,  FRACTION OF STEP COMPLETED  0.984    
 STEP TIME COMPLETED       9.844E-03,  TOTAL TIME COMPLETED        9.844E-03


  INCREMENT   123 STARTS. ATTEMPT NUMBER  1, TIME INCREMENT  1.000E-04

  NUMBER OF EQUATIONS =      3006     NUMBER OF RHS =    1
  NUMBER OF FLOATING PT. OPERATIONS =  8.47E+05

     CHECK POINT   START OF SOLVER    

     CHECK POINT  END OF SOLVER       

       ELAPSED USER TIME (SEC)      =   0.0000    
       ELAPSED SYSTEM TIME (SEC)    =   0.0000    
       ELAPSED TOTAL CPU TIME (SEC) =   0.0000    
       ELAPSED WALLCLOCK TIME (SEC) =          0

               CONVERGENCE CHECKS FOR EQUILIBRIUM ITERATION     1


 AVERAGE FORCE                      1.060E-03   TIME AVG. FORCE       5.294E-03
 LARGEST RESIDUAL FORCE             4.590E-14   AT NODE        482   DOF  2
   INSTANCE: BEAM                                                                            
 LARGEST INCREMENT OF DISP.         4.453E-05   AT NODE        101   DOF  2
   INSTANCE: BEAM                                                                            
 LARGEST CORRECTION TO DISP.       -9.367E-06   AT NODE         22   DOF  2
   INSTANCE: BEAM                                                                            
          THE FORCE     EQUILIBRIUM RESPONSE WAS LINEAR IN THIS INCREMENT

 AVERAGE MOMENT                     3.454E-02   TIME AVG. MOMENT      4.983E-02
 LARGEST RESIDUAL MOMENT            3.138E-14   AT NODE        490   DOF  6
   INSTANCE: BEAM                                                                            
 LARGEST INCREMENT OF ROTATION     -9.018E-07   AT NODE          4   DOF  6
   INSTANCE: BEAM                                                                            
 LARGEST CORRECTION TO ROTATION    -4.535E-07   AT NODE        175   DOF  6
   INSTANCE: BEAM                                                                            
          THE MOMENT    EQUILIBRIUM RESPONSE WAS LINEAR IN THIS INCREMENT

  MAXIMUM HALF-INCREMENT FORCE RESIDUAL IS  -1.844E-03 AND OCCURS AT NODE        501 INSTANCE BEAM                                                                            
  MAXIMUM HALF-INCREMENT MOMENT RESIDUAL IS  -2.853E-03 AND OCCURS AT NODE        500 INSTANCE BEAM                                                                            

 ITERATION SUMMARY FOR THE INCREMENT:   1 TOTAL ITERATIONS, OF WHICH
   0 ARE SEVERE DISCONTINUITY ITERATIONS AND  1 ARE EQUILIBRIUM ITERATIONS.

 TIME INCREMENT COMPLETED  1.000E-04,  FRACTION OF STEP COMPLETED  0.994    
 STEP TIME COMPLETED       9.944E-03,  TOTAL TIME COMPLETED        9.944E-03


  INCREMENT   124 STARTS. ATTEMPT NUMBER  1, TIME INCREMENT  5.585E-05

  NUMBER OF EQUATIONS =      3006     NUMBER OF RHS =    1
  NUMBER OF FLOATING PT. OPERATIONS =  8.47E+05

     CHECK POINT   START OF SOLVER    

     CHECK POINT  END OF SOLVER       

       ELAPSED USER TIME (SEC)      =   0.0000    
       ELAPSED SYSTEM TIME (SEC)    =   0.0000    
       ELAPSED TOTAL CPU TIME (SEC) =   0.0000    
       ELAPSED WALLCLOCK TIME (SEC) =          0

               CONVERGENCE CHECKS FOR EQUILIBRIUM ITERATION     1


 AVERAGE FORCE                      9.939E-04   TIME AVG. FORCE       5.259E-03
 LARGEST RESIDUAL FORCE             4.815E-14   AT NODE        488   DOF  2
   INSTANCE: BEAM                                                                            
 LARGEST INCREMENT OF DISP.        -2.478E-05   AT NODE          7   DOF  2
   INSTANCE: BEAM                                                                            
 LARGEST CORRECTION TO DISP.        4.244E-06   AT NODE          6   DOF  2
   INSTANCE: BEAM                                                                            
          THE FORCE     EQUILIBRIUM RESPONSE WAS LINEAR IN THIS INCREMENT

 AVERAGE MOMENT                     3.260E-02   TIME AVG. MOMENT      4.969E-02
 LARGEST RESIDUAL MOMENT           -2.750E-14   AT NODE        495   DOF  6
   INSTANCE: BEAM                                                                            
 LARGEST INCREMENT OF ROTATION     -6.814E-07   AT NODE        114   DOF  6
   INSTANCE: BEAM                                                                            
 LARGEST CORRECTION TO ROTATION    -1.820E-07   AT NODE        133   DOF  6
   INSTANCE: BEAM                                                                            
          THE MOMENT    EQUILIBRIUM RESPONSE WAS LINEAR IN THIS INCREMENT

  MAXIMUM HALF-INCREMENT FORCE RESIDUAL IS   6.219E-04 AND OCCURS AT NODE        501 INSTANCE BEAM                                                                            
  MAXIMUM HALF-INCREMENT MOMENT RESIDUAL IS   8.751E-04 AND OCCURS AT NODE        500 INSTANCE BEAM                                                                            

 ITERATION SUMMARY FOR THE INCREMENT:   1 TOTAL ITERATIONS, OF WHICH
   0 ARE SEVERE DISCONTINUITY ITERATIONS AND  1 ARE EQUILIBRIUM ITERATIONS.

 TIME INCREMENT COMPLETED  5.585E-05,  FRACTION OF STEP COMPLETED   1.00    
 STEP TIME COMPLETED       1.000E-02,  TOTAL TIME COMPLETED        1.000E-02


          THE ANALYSIS HAS BEEN COMPLETED



     ANALYSIS SUMMARY:
     TOTAL OF        124  INCREMENTS
                       0  CUTBACKS IN AUTOMATIC INCREMENTATION
                     124  ITERATIONS INCLUDING CONTACT ITERATIONS IF PRESENT
                     126  PASSES THROUGH THE EQUATION SOLVER OF WHICH 
                      26  INVOLVE MATRIX DECOMPOSITION, INCLUDING
                       2  DECOMPOSITION(S) OF THE MASS MATRIX
                       1  REORDERING OF EQUATIONS TO MINIMIZE WAVEFRONT
                       0  ADDITIONAL RESIDUAL EVALUATIONS FOR LINE SEARCHES
                       0  ADDITIONAL OPERATOR EVALUATIONS FOR LINE SEARCHES
                       0  WARNING MESSAGES DURING USER INPUT PROCESSING
                       0  WARNING MESSAGES DURING ANALYSIS
                       0  ANALYSIS WARNINGS ARE NUMERICAL PROBLEM MESSAGES
                       0  ANALYSIS WARNINGS ARE NEGATIVE EIGENVALUE MESSAGES
                       0  ERROR MESSAGES



     JOB TIME SUMMARY
       USER TIME (SEC)      =   4.5000    
       SYSTEM TIME (SEC)    =  0.10000    
       TOTAL CPU TIME (SEC) =   4.6000    
       WALLCLOCK TIME (SEC) =          8
