1

   Abaqus 2020                                  Date 31-Jan-2024   Time 22:36:17
   For use by Supplied by Team-SolidSQUAD under license from Dassault Systemes or its subsidiary.

                                                                                 
                                                                                 
 STEP    1     INCREMENT     1     STEP TIME    0.00    


                        S T E P       1     D Y N A M I C   A N A L Y S I S - I M P L I C I T  I N T E G R A T I O N


                                                                                          

          DYNAMIC APPLICATION PACKED SCHEME IS                 TRANSIENT FIDELITY  
          HILBER-HUGHES-TAYLOR (HHT) TIME INTEGRATOR IS USED

     AUTOMATIC TIME CONTROL WITH -
          A SUGGESTED INITIAL TIME INCREMENT OF                1.000E-06
          AND A TOTAL TIME PERIOD OF                           1.000E-02
          THE MINIMUM TIME INCREMENT ALLOWED IS                1.000E-07
          THE MAXIMUM TIME INCREMENT ALLOWED IS                1.000E-04
          SCALE FACTOR ON TIME AVERAGE FORCE FOR HALF-
           -INCREMENT RESIDUAL COMPUTATIONS IS                 1.000E+03

          HILBER-HUGHES-TAYLOR METHOD PARAMETERS:  ALPHA   IS  -5.000000E-02
                                                   BETA    IS   0.275625    
                                                   GAMMA   IS   0.550000    
          SINGULAR MASS TREATMENT TYPE IS                     ERROR
          CONSERVATIVE TIME INCREMENTATION IS USED
          STEP AMPLITUDE IS                                    STEP

 CONVERGENCE TOLERANCE PARAMETERS FOR FORCE    
     CRITERION FOR RESIDUAL FORCE     FOR A NONLINEAR PROBLEM          5.000E-03
     CRITERION FOR DISP.    CORRECTION IN A NONLINEAR PROBLEM          1.000E-02
     INITIAL VALUE OF TIME AVERAGE FORCE                               1.000E-02
     AVERAGE FORCE     IS TIME AVERAGE FORCE    
     ALTERNATE CRIT. FOR RESIDUAL FORCE     FOR A NONLINEAR PROBLEM    2.000E-02
     CRITERION FOR ZERO FORCE     RELATIVE TO TIME AVRG. FORCE         1.000E-05
     CRITERION FOR RESIDUAL FORCE     WHEN THERE IS ZERO FLUX          1.000E-05
     CRITERION FOR DISP.    CORRECTION WHEN THERE IS ZERO FLUX         1.000E-03
     CRITERION FOR RESIDUAL FORCE     FOR A LINEAR INCREMENT           1.000E-08
     FIELD CONVERSION RATIO                                             1.00    
     CRITERION FOR ZERO FORCE     REL. TO TIME AVRG. MAX. FORCE        1.000E-05
     CRITERION FOR ZERO DISP.    RELATIVE TO CHARACTERISTIC LENGTH     1.000E-08

 CONVERGENCE TOLERANCE PARAMETERS FOR MOMENT   
     CRITERION FOR RESIDUAL MOMENT    FOR A NONLINEAR PROBLEM          5.000E-03
     CRITERION FOR ROTATION CORRECTION IN A NONLINEAR PROBLEM          1.000E-02
     INITIAL VALUE OF TIME AVERAGE MOMENT                              1.000E-02
     AVERAGE MOMENT    IS TIME AVERAGE MOMENT   
     ALTERNATE CRIT. FOR RESIDUAL MOMENT    FOR A NONLINEAR PROBLEM    2.000E-02
     CRITERION FOR ZERO MOMENT    RELATIVE TO TIME AVRG. MOMENT        1.000E-05
     CRITERION FOR RESIDUAL MOMENT    WHEN THERE IS ZERO FLUX          1.000E-05
     CRITERION FOR ROTATION CORRECTION WHEN THERE IS ZERO FLUX         1.000E-03
     CRITERION FOR RESIDUAL MOMENT    FOR A LINEAR INCREMENT           1.000E-08
     FIELD CONVERSION RATIO                                             1.00    
     CRITERION FOR ZERO MOMENT    REL. TO TIME AVRG. MAX. MOMENT       1.000E-05

     VOLUMETRIC STRAIN COMPATIBILITY TOLERANCE FOR HYBRID SOLIDS       1.000E-05
     AXIAL STRAIN COMPATIBILITY TOLERANCE FOR HYBRID BEAMS             1.000E-05
     TRANS. SHEAR STRAIN COMPATIBILITY TOLERANCE FOR HYBRID BEAMS      1.000E-05
     SOFT CONTACT CONSTRAINT COMPATIBILITY TOLERANCE FOR P>P0          5.000E-03
     SOFT CONTACT CONSTRAINT COMPATIBILITY TOLERANCE FOR P=0.0         0.100    
     CONTACT FORCE ERROR TOLERANCE FOR CONVERT SDI=YES                 1.00    
     DISPLACEMENT COMPATIBILITY TOLERANCE FOR DCOUP ELEMENTS           1.000E-05
     ROTATION COMPATIBILITY TOLERANCE FOR DCOUP ELEMENTS               1.000E-05

 EQUILIBRIUM WILL BE CHECKED FOR SEVERE DISCONTINUITY ITERATIONS

 TIME INCREMENTATION CONTROL PARAMETERS:
     FIRST EQUILIBRIUM ITERATION FOR CONSECUTIVE DIVERGENCE CHECK              4
     EQUILIBRIUM ITERATION AT WHICH LOG. CONVERGENCE RATE CHECK BEGINS         8
     EQUILIBRIUM ITERATION AFTER WHICH ALTERNATE RESIDUAL IS USED              9
     MAXIMUM EQUILIBRIUM ITERATIONS ALLOWED                                   16
     EQUILIBRIUM ITERATION COUNT FOR CUT-BACK IN NEXT INCREMENT               10
     MAXIMUM EQUILIB. ITERS IN TWO INCREMENTS FOR TIME INCREMENT INCREASE      4
     MAXIMUM ITERATIONS FOR SEVERE DISCONTINUITIES                            50
     MAXIMUM ATTEMPTS ALLOWED IN AN INCREMENT                                  5
     MAXIMUM DISCON. ITERS IN TWO INCREMENTS FOR TIME INCREMENT INCREASE      50
     MAXIMUM CONTACT AUGMENTATIONS FOR *SURFACE BEHAVIOR,AUGMENTED LAGRANGE   50
     CONSECUTIVE INCS MEETING TIME INTEG. TOL. FOR TIME INC. INCREASE          3
     CUT-BACK FACTOR AFTER DIVERGENCE                                 0.2500    
     CUT-BACK FACTOR FOR TOO SLOW CONVERGENCE                         0.5000    
     CUT-BACK FACTOR AFTER TOO MANY EQUILIBRIUM ITERATIONS            0.7500    
     CUT-BACK FACTOR AFTER TOO MANY SEVERE DISCONTINUITY ITERATIONS   0.2500    
     CUT-BACK FACTOR AFTER PROBLEMS IN ELEMENT ASSEMBLY               0.2500    
     INCREASE FACTOR AFTER TWO INCREMENTS THAT CONVERGE QUICKLY        1.500    
     MAX. TIME INCREMENT INCREASE FACTOR ALLOWED                       1.500    
     MAX. TIME INCREMENT INCREASE FACTOR ALLOWED (DYNAMICS)            1.250    
     MAX. TIME INCREMENT INCREASE FACTOR ALLOWED (DIFFUSION)           2.000    
     MINIMUM TIME INCREMENT RATIO FOR EXTRAPOLATION TO OCCUR          0.1000    
     CUT-BACK FACTOR WHEN TIME INTEGRATION ACCURACY TOL. EXCEEDED     0.8500    
     MAX. RATIO OF TIME INTEG. MEASURE TO TOL. FOR TIME INC. INCREASE 0.7500    
     INCREASE FACTOR FOR TIME INCREMENT WHEN POSSIBLE                 0.8000    
     MIN. TIME INC. INCREASE FACTOR IN LINEAR TRANSIENT PROBLEMS      0.9500    
     MAX. RATIO OF TIME INCREMENT TO STABILITY LIMIT                   1.000    
     FRACTION OF STABILITY LIMIT FOR NEW TIME INCREMENT               0.9500    
     TIME INCREMENT INCREASE FACTOR BEFORE A TIME POINT                1.000    
     GLOBAL STABILIZATION CONTROL IS NOT USED

          PRINT OF INCREMENT NUMBER, TIME, ETC., EVERY    1  INCREMENTS

     THE MAXIMUM NUMBER OF INCREMENTS IN THIS STEP IS                 1000000

     VELOCITY-BASED PARABOLIC EXTRAPOLATION WILL BE USED

     CHARACTERISTIC ELEMENT LENGTH      2.00    

     DETAILS REGARDING ACTUAL SOLUTION WAVEFRONT REQUESTED

     DETAILED OUTPUT OF DIAGNOSTICS TO DATABASE REQUESTED

     PRINT OF INCREMENT NUMBER, TIME, ETC., TO THE MESSAGE FILE EVERY     1  INCREMENTS

     COLLECTING MODEL CONSTRAINT INFORMATION FOR OVERCONSTRAINT CHECKS

     COLLECTING STEP CONSTRAINT INFORMATION FOR OVERCONSTRAINT CHECKS

  NUMBER OF EQUATIONS =      3006     NUMBER OF RHS =    1
  NUMBER OF FLOATING PT. OPERATIONS =  8.47E+05

     CHECK POINT   START OF SOLVER    

     CHECK POINT  END OF SOLVER       

       ELAPSED USER TIME (SEC)      =   0.0000    
       ELAPSED SYSTEM TIME (SEC)    =   0.0000    
       ELAPSED TOTAL CPU TIME (SEC) =   0.0000    
       ELAPSED WALLCLOCK TIME (SEC) =          0

  NUMBER OF EQUATIONS =      3006     NUMBER OF RHS =    1
  NUMBER OF FLOATING PT. OPERATIONS =  8.47E+05

     CHECK POINT   START OF SOLVER    

     CHECK POINT  END OF SOLVER       

       ELAPSED USER TIME (SEC)      =   0.0000    
       ELAPSED SYSTEM TIME (SEC)    =   0.0000    
       ELAPSED TOTAL CPU TIME (SEC) =   0.0000    
       ELAPSED WALLCLOCK TIME (SEC) =          0


  INCREMENT     1 STARTS. ATTEMPT NUMBER  1, TIME INCREMENT  1.000E-06

  NUMBER OF EQUATIONS =      3006     NUMBER OF RHS =    1
  NUMBER OF FLOATING PT. OPERATIONS =  8.47E+05

     CHECK POINT   START OF SOLVER    

     CHECK POINT  END OF SOLVER       

       ELAPSED USER TIME (SEC)      =   0.0000    
       ELAPSED SYSTEM TIME (SEC)    =   0.0000    
       ELAPSED TOTAL CPU TIME (SEC) =   0.0000    
       ELAPSED WALLCLOCK TIME (SEC) =          0

               CONVERGENCE CHECKS FOR EQUILIBRIUM ITERATION     1


 AVERAGE FORCE                      3.721E-04   TIME AVG. FORCE       3.721E-04
 LARGEST RESIDUAL FORCE             3.469E-18   AT NODE        101   DOF  2
   INSTANCE: BEAM                                                                            
 LARGEST INCREMENT OF DISP.         1.430E-08   AT NODE        101   DOF  2
   INSTANCE: BEAM                                                                            
 LARGEST CORRECTION TO DISP.        1.430E-08   AT NODE        101   DOF  2
   INSTANCE: BEAM                                                                            
          THE FORCE     EQUILIBRIUM RESPONSE WAS LINEAR IN THIS INCREMENT

 AVERAGE MOMENT                     7.387E-06   TIME AVG. MOMENT      7.387E-06
 LARGEST RESIDUAL MOMENT            4.337E-19   AT NODE        501   DOF  6
   INSTANCE: BEAM                                                                            
 LARGEST INCREMENT OF ROTATION      1.444E-10   AT NODE        101   DOF  6
   INSTANCE: BEAM                                                                            
 LARGEST CORRECTION TO ROTATION     1.444E-10   AT NODE        101   DOF  6
   INSTANCE: BEAM                                                                            
          THE MOMENT    EQUILIBRIUM RESPONSE WAS LINEAR IN THIS INCREMENT

  MAXIMUM HALF-INCREMENT FORCE RESIDUAL IS   4.240E-03 AND OCCURS AT NODE        101 INSTANCE BEAM                                                                            
  MAXIMUM HALF-INCREMENT MOMENT RESIDUAL IS  -2.658E-04 AND OCCURS AT NODE        501 INSTANCE BEAM                                                                            

 ITERATION SUMMARY FOR THE INCREMENT:   1 TOTAL ITERATIONS, OF WHICH
   0 ARE SEVERE DISCONTINUITY ITERATIONS AND  1 ARE EQUILIBRIUM ITERATIONS.

 TIME INCREMENT COMPLETED  1.000E-06,  FRACTION OF STEP COMPLETED  1.000E-04
 STEP TIME COMPLETED       1.000E-06,  TOTAL TIME COMPLETED        1.000E-06


  INCREMENT     2 STARTS. ATTEMPT NUMBER  1, TIME INCREMENT  1.000E-06

  NUMBER OF EQUATIONS =      3006     NUMBER OF RHS =    1
  NUMBER OF FLOATING PT. OPERATIONS =  8.47E+05

     CHECK POINT   START OF SOLVER    

     CHECK POINT  END OF SOLVER       

       ELAPSED USER TIME (SEC)      =   0.0000    
       ELAPSED SYSTEM TIME (SEC)    =   0.0000    
       ELAPSED TOTAL CPU TIME (SEC) =   0.0000    
       ELAPSED WALLCLOCK TIME (SEC) =          0

               CONVERGENCE CHECKS FOR EQUILIBRIUM ITERATION     1


 AVERAGE FORCE                      3.721E-03   TIME AVG. FORCE       2.047E-03
 LARGEST RESIDUAL FORCE             1.388E-17   AT NODE        101   DOF  2
   INSTANCE: BEAM                                                                            
 LARGEST INCREMENT OF DISP.         9.739E-08   AT NODE        101   DOF  2
   INSTANCE: BEAM                                                                            
 LARGEST CORRECTION TO DISP.        5.462E-08   AT NODE        101   DOF  2
   INSTANCE: BEAM                                                                            
          THE FORCE     EQUILIBRIUM RESPONSE WAS LINEAR IN THIS INCREMENT

 AVERAGE MOMENT                     8.109E-04   TIME AVG. MOMENT      4.091E-04
 LARGEST RESIDUAL MOMENT           -1.735E-18   AT NODE        101   DOF  6
   INSTANCE: BEAM                                                                            
 LARGEST INCREMENT OF ROTATION      1.451E-09   AT NODE        101   DOF  6
   INSTANCE: BEAM                                                                            
 LARGEST CORRECTION TO ROTATION     1.019E-09   AT NODE        101   DOF  6
   INSTANCE: BEAM                                                                            
          THE MOMENT    EQUILIBRIUM RESPONSE WAS LINEAR IN THIS INCREMENT

  MAXIMUM HALF-INCREMENT FORCE RESIDUAL IS   1.403E-02 AND OCCURS AT NODE        101 INSTANCE BEAM                                                                            
  MAXIMUM HALF-INCREMENT MOMENT RESIDUAL IS  -1.063E-03 AND OCCURS AT NODE        501 INSTANCE BEAM                                                                            

 ITERATION SUMMARY FOR THE INCREMENT:   1 TOTAL ITERATIONS, OF WHICH
   0 ARE SEVERE DISCONTINUITY ITERATIONS AND  1 ARE EQUILIBRIUM ITERATIONS.

 TIME INCREMENT COMPLETED  1.000E-06,  FRACTION OF STEP COMPLETED  2.000E-04
 STEP TIME COMPLETED       2.000E-06,  TOTAL TIME COMPLETED        2.000E-06


  INCREMENT     3 STARTS. ATTEMPT NUMBER  1, TIME INCREMENT  1.000E-06

  NUMBER OF EQUATIONS =      3006     NUMBER OF RHS =    1
  NUMBER OF FLOATING PT. OPERATIONS =  8.47E+05

     CHECK POINT   START OF SOLVER    

     CHECK POINT  END OF SOLVER       

       ELAPSED USER TIME (SEC)      =   0.0000    
       ELAPSED SYSTEM TIME (SEC)    =   0.0000    
       ELAPSED TOTAL CPU TIME (SEC) =   0.0000    
       ELAPSED WALLCLOCK TIME (SEC) =          0

               CONVERGENCE CHECKS FOR EQUILIBRIUM ITERATION     1


 AVERAGE FORCE                      3.595E-03   TIME AVG. FORCE       2.563E-03
 LARGEST RESIDUAL FORCE             2.082E-17   AT NODE        101   DOF  2
   INSTANCE: BEAM                                                                            
 LARGEST INCREMENT OF DISP.         2.327E-07   AT NODE        101   DOF  2
   INSTANCE: BEAM                                                                            
 LARGEST CORRECTION TO DISP.        1.238E-08   AT NODE        501   DOF  2
   INSTANCE: BEAM                                                                            
          THE FORCE     EQUILIBRIUM RESPONSE WAS LINEAR IN THIS INCREMENT

 AVERAGE MOMENT                     2.443E-03   TIME AVG. MOMENT      1.087E-03
 LARGEST RESIDUAL MOMENT            5.204E-18   AT NODE        501   DOF  6
   INSTANCE: BEAM                                                                            
 LARGEST INCREMENT OF ROTATION      6.185E-09   AT NODE        101   DOF  6
   INSTANCE: BEAM                                                                            
 LARGEST CORRECTION TO ROTATION     2.418E-09   AT NODE        101   DOF  6
   INSTANCE: BEAM                                                                            
          THE MOMENT    EQUILIBRIUM RESPONSE WAS LINEAR IN THIS INCREMENT

  MAXIMUM HALF-INCREMENT FORCE RESIDUAL IS  -4.772E-03 AND OCCURS AT NODE        101 INSTANCE BEAM                                                                            
  MAXIMUM HALF-INCREMENT MOMENT RESIDUAL IS  -6.559E-04 AND OCCURS AT NODE        500 INSTANCE BEAM                                                                            
          TIME INCREMENT MAY NOW INCREASE TO    1.250E-06

 ITERATION SUMMARY FOR THE INCREMENT:   1 TOTAL ITERATIONS, OF WHICH
   0 ARE SEVERE DISCONTINUITY ITERATIONS AND  1 ARE EQUILIBRIUM ITERATIONS.

 TIME INCREMENT COMPLETED  1.000E-06,  FRACTION OF STEP COMPLETED  3.000E-04
 STEP TIME COMPLETED       3.000E-06,  TOTAL TIME COMPLETED        3.000E-06


  INCREMENT     4 STARTS. ATTEMPT NUMBER  1, TIME INCREMENT  1.250E-06

  NUMBER OF EQUATIONS =      3006     NUMBER OF RHS =    1
  NUMBER OF FLOATING PT. OPERATIONS =  8.47E+05

     CHECK POINT   START OF SOLVER    

     CHECK POINT  END OF SOLVER       

       ELAPSED USER TIME (SEC)      =   0.0000    
       ELAPSED SYSTEM TIME (SEC)    =   0.0000    
       ELAPSED TOTAL CPU TIME (SEC) =   0.0000    
       ELAPSED WALLCLOCK TIME (SEC) =          0

               CONVERGENCE CHECKS FOR EQUILIBRIUM ITERATION     1


 AVERAGE FORCE                      8.907E-03   TIME AVG. FORCE       4.149E-03
 LARGEST RESIDUAL FORCE             1.388E-17   AT NODE        101   DOF  2
   INSTANCE: BEAM                                                                            
 LARGEST INCREMENT OF DISP.         8.760E-08   AT NODE        501   DOF  2
   INSTANCE: BEAM                                                                            
 LARGEST CORRECTION TO DISP.       -4.567E-07   AT NODE        101   DOF  2
   INSTANCE: BEAM                                                                            
          THE FORCE     EQUILIBRIUM RESPONSE WAS LINEAR IN THIS INCREMENT

 AVERAGE MOMENT                     2.663E-03   TIME AVG. MOMENT      1.481E-03
 LARGEST RESIDUAL MOMENT           -1.236E-17   AT NODE        101   DOF  6
   INSTANCE: BEAM                                                                            
 LARGEST INCREMENT OF ROTATION      1.623E-08   AT NODE        101   DOF  6
   INSTANCE: BEAM                                                                            
 LARGEST CORRECTION TO ROTATION     2.024E-09   AT NODE        500   DOF  6
   INSTANCE: BEAM                                                                            
          THE MOMENT    EQUILIBRIUM RESPONSE WAS LINEAR IN THIS INCREMENT

  MAXIMUM HALF-INCREMENT FORCE RESIDUAL IS  -7.600E-02 AND OCCURS AT NODE        101 INSTANCE BEAM                                                                            
  MAXIMUM HALF-INCREMENT MOMENT RESIDUAL IS   8.067E-03 AND OCCURS AT NODE        501 INSTANCE BEAM                                                                            
          TIME INCREMENT MAY NOW INCREASE TO    1.562E-06

 ITERATION SUMMARY FOR THE INCREMENT:   1 TOTAL ITERATIONS, OF WHICH
   0 ARE SEVERE DISCONTINUITY ITERATIONS AND  1 ARE EQUILIBRIUM ITERATIONS.

 TIME INCREMENT COMPLETED  1.250E-06,  FRACTION OF STEP COMPLETED  4.250E-04
 STEP TIME COMPLETED       4.250E-06,  TOTAL TIME COMPLETED        4.250E-06


  INCREMENT     5 STARTS. ATTEMPT NUMBER  1, TIME INCREMENT  1.562E-06

  NUMBER OF EQUATIONS =      3006     NUMBER OF RHS =    1
  NUMBER OF FLOATING PT. OPERATIONS =  8.47E+05

     CHECK POINT   START OF SOLVER    

     CHECK POINT  END OF SOLVER       

       ELAPSED USER TIME (SEC)      =   0.0000    
       ELAPSED SYSTEM TIME (SEC)    =   0.0000    
       ELAPSED TOTAL CPU TIME (SEC) =   0.0000    
       ELAPSED WALLCLOCK TIME (SEC) =          0

               CONVERGENCE CHECKS FOR EQUILIBRIUM ITERATION     1


 AVERAGE FORCE                      1.432E-02   TIME AVG. FORCE       6.184E-03
 LARGEST RESIDUAL FORCE             2.776E-17   AT NODE        101   DOF  2
   INSTANCE: BEAM                                                                            
 LARGEST INCREMENT OF DISP.        -1.507E-06   AT NODE        101   DOF  2
   INSTANCE: BEAM                                                                            
 LARGEST CORRECTION TO DISP.       -5.485E-07   AT NODE        101   DOF  2
   INSTANCE: BEAM                                                                            
          THE FORCE     EQUILIBRIUM RESPONSE WAS LINEAR IN THIS INCREMENT

 AVERAGE MOMENT                     7.520E-03   TIME AVG. MOMENT      2.689E-03
 LARGEST RESIDUAL MOMENT           -2.082E-17   AT NODE        501   DOF  6
   INSTANCE: BEAM                                                                            
 LARGEST INCREMENT OF ROTATION      1.135E-08   AT NODE        500   DOF  6
   INSTANCE: BEAM                                                                            
 LARGEST CORRECTION TO ROTATION    -4.072E-08   AT NODE        101   DOF  6
   INSTANCE: BEAM                                                                            
          THE MOMENT    EQUILIBRIUM RESPONSE WAS LINEAR IN THIS INCREMENT

  MAXIMUM HALF-INCREMENT FORCE RESIDUAL IS  -4.800E-02 AND OCCURS AT NODE        101 INSTANCE BEAM                                                                            
  MAXIMUM HALF-INCREMENT MOMENT RESIDUAL IS   1.074E-02 AND OCCURS AT NODE        501 INSTANCE BEAM                                                                            
          TIME INCREMENT MAY NOW INCREASE TO    1.953E-06

 ITERATION SUMMARY FOR THE INCREMENT:   1 TOTAL ITERATIONS, OF WHICH
   0 ARE SEVERE DISCONTINUITY ITERATIONS AND  1 ARE EQUILIBRIUM ITERATIONS.

 TIME INCREMENT COMPLETED  1.562E-06,  FRACTION OF STEP COMPLETED  5.812E-04
 STEP TIME COMPLETED       5.812E-06,  TOTAL TIME COMPLETED        5.812E-06


  INCREMENT     6 STARTS. ATTEMPT NUMBER  1, TIME INCREMENT  1.953E-06

  NUMBER OF EQUATIONS =      3006     NUMBER OF RHS =    1
  NUMBER OF FLOATING PT. OPERATIONS =  8.47E+05

     CHECK POINT   START OF SOLVER    

     CHECK POINT  END OF SOLVER       

       ELAPSED USER TIME (SEC)      =   0.0000    
       ELAPSED SYSTEM TIME (SEC)    =   0.0000    
       ELAPSED TOTAL CPU TIME (SEC) =   0.0000    
       ELAPSED WALLCLOCK TIME (SEC) =          0

               CONVERGENCE CHECKS FOR EQUILIBRIUM ITERATION     1


 AVERAGE FORCE                      2.463E-02   TIME AVG. FORCE       9.258E-03
 LARGEST RESIDUAL FORCE             2.776E-17   AT NODE        501   DOF  2
   INSTANCE: BEAM                                                                            
 LARGEST INCREMENT OF DISP.        -8.071E-07   AT NODE        101   DOF  2
   INSTANCE: BEAM                                                                            
 LARGEST CORRECTION TO DISP.        4.159E-06   AT NODE        101   DOF  2
   INSTANCE: BEAM                                                                            
          THE FORCE     EQUILIBRIUM RESPONSE WAS LINEAR IN THIS INCREMENT

 AVERAGE MOMENT                     1.064E-02   TIME AVG. MOMENT      4.013E-03
 LARGEST RESIDUAL MOMENT            8.327E-17   AT NODE        501   DOF  6
   INSTANCE: BEAM                                                                            
 LARGEST INCREMENT OF ROTATION     -1.143E-07   AT NODE        101   DOF  6
   INSTANCE: BEAM                                                                            
 LARGEST CORRECTION TO ROTATION    -3.888E-08   AT NODE        500   DOF  6
   INSTANCE: BEAM                                                                            
          THE MOMENT    EQUILIBRIUM RESPONSE WAS LINEAR IN THIS INCREMENT

  MAXIMUM HALF-INCREMENT FORCE RESIDUAL IS   0.343     AND OCCURS AT NODE        101 INSTANCE BEAM                                                                            
  MAXIMUM HALF-INCREMENT MOMENT RESIDUAL IS  -7.154E-02 AND OCCURS AT NODE        501 INSTANCE BEAM                                                                            
          TIME INCREMENT MAY NOW INCREASE TO    2.441E-06

 ITERATION SUMMARY FOR THE INCREMENT:   1 TOTAL ITERATIONS, OF WHICH
   0 ARE SEVERE DISCONTINUITY ITERATIONS AND  1 ARE EQUILIBRIUM ITERATIONS.

 TIME INCREMENT COMPLETED  1.953E-06,  FRACTION OF STEP COMPLETED  7.766E-04
 STEP TIME COMPLETED       7.766E-06,  TOTAL TIME COMPLETED        7.766E-06


  INCREMENT     7 STARTS. ATTEMPT NUMBER  1, TIME INCREMENT  2.441E-06

  NUMBER OF EQUATIONS =      3006     NUMBER OF RHS =    1
  NUMBER OF FLOATING PT. OPERATIONS =  8.47E+05

     CHECK POINT   START OF SOLVER    

     CHECK POINT  END OF SOLVER       

       ELAPSED USER TIME (SEC)      =   0.0000    
       ELAPSED SYSTEM TIME (SEC)    =   0.0000    
       ELAPSED TOTAL CPU TIME (SEC) =   0.0000    
       ELAPSED WALLCLOCK TIME (SEC) =          0

               CONVERGENCE CHECKS FOR EQUILIBRIUM ITERATION     1


 AVERAGE FORCE                      1.768E-02   TIME AVG. FORCE       1.046E-02
 LARGEST RESIDUAL FORCE             5.551E-17   AT NODE        101   DOF  2
   INSTANCE: BEAM                                                                            
 LARGEST INCREMENT OF DISP.         3.308E-06   AT NODE        101   DOF  2
   INSTANCE: BEAM                                                                            
 LARGEST CORRECTION TO DISP.       -2.509E-06   AT NODE        101   DOF  2
   INSTANCE: BEAM                                                                            
          THE FORCE     EQUILIBRIUM RESPONSE WAS LINEAR IN THIS INCREMENT

 AVERAGE MOMENT                     1.869E-02   TIME AVG. MOMENT      6.110E-03
 LARGEST RESIDUAL MOMENT           -6.939E-17   AT NODE        500   DOF  6
   INSTANCE: BEAM                                                                            
 LARGEST INCREMENT OF ROTATION     -1.122E-07   AT NODE        500   DOF  6
   INSTANCE: BEAM                                                                            
 LARGEST CORRECTION TO ROTATION     2.611E-07   AT NODE        101   DOF  6
   INSTANCE: BEAM                                                                            
          THE MOMENT    EQUILIBRIUM RESPONSE WAS LINEAR IN THIS INCREMENT

  MAXIMUM HALF-INCREMENT FORCE RESIDUAL IS  -0.303     AND OCCURS AT NODE        101 INSTANCE BEAM                                                                            
  MAXIMUM HALF-INCREMENT MOMENT RESIDUAL IS   9.423E-02 AND OCCURS AT NODE        101 INSTANCE BEAM                                                                            
          TIME INCREMENT MAY NOW INCREASE TO    3.052E-06

 ITERATION SUMMARY FOR THE INCREMENT:   1 TOTAL ITERATIONS, OF WHICH
   0 ARE SEVERE DISCONTINUITY ITERATIONS AND  1 ARE EQUILIBRIUM ITERATIONS.

 TIME INCREMENT COMPLETED  2.441E-06,  FRACTION OF STEP COMPLETED  1.021E-03
 STEP TIME COMPLETED       1.021E-05,  TOTAL TIME COMPLETED        1.021E-05


  INCREMENT     8 STARTS. ATTEMPT NUMBER  1, TIME INCREMENT  3.052E-06

  NUMBER OF EQUATIONS =      3006     NUMBER OF RHS =    1
  NUMBER OF FLOATING PT. OPERATIONS =  8.47E+05

     CHECK POINT   START OF SOLVER    

     CHECK POINT  END OF SOLVER       

       ELAPSED USER TIME (SEC)      =   0.0000    
       ELAPSED SYSTEM TIME (SEC)    =   0.0000    
       ELAPSED TOTAL CPU TIME (SEC) =   0.0000    
       ELAPSED WALLCLOCK TIME (SEC) =          0

               CONVERGENCE CHECKS FOR EQUILIBRIUM ITERATION     1


 AVERAGE FORCE                      8.321E-03   TIME AVG. FORCE       1.019E-02
 LARGEST RESIDUAL FORCE            -3.123E-16   AT NODE        101   DOF  2
   INSTANCE: BEAM                                                                            
 LARGEST INCREMENT OF DISP.         1.384E-06   AT NODE        501   DOF  2
   INSTANCE: BEAM                                                                            
 LARGEST CORRECTION TO DISP.       -7.814E-06   AT NODE        101   DOF  2
   INSTANCE: BEAM                                                                            
          THE FORCE     EQUILIBRIUM RESPONSE WAS LINEAR IN THIS INCREMENT

 AVERAGE MOMENT                     2.113E-02   TIME AVG. MOMENT      7.988E-03
 LARGEST RESIDUAL MOMENT            3.053E-16   AT NODE        500   DOF  6
   INSTANCE: BEAM                                                                            
 LARGEST INCREMENT OF ROTATION      2.560E-07   AT NODE        101   DOF  6
   INSTANCE: BEAM                                                                            
 LARGEST CORRECTION TO ROTATION     2.625E-07   AT NODE        500   DOF  6
   INSTANCE: BEAM                                                                            
          THE MOMENT    EQUILIBRIUM RESPONSE WAS LINEAR IN THIS INCREMENT

  MAXIMUM HALF-INCREMENT FORCE RESIDUAL IS   5.749E-02 AND OCCURS AT NODE        501 INSTANCE BEAM                                                                            
  MAXIMUM HALF-INCREMENT MOMENT RESIDUAL IS   0.117     AND OCCURS AT NODE        500 INSTANCE BEAM                                                                            
          TIME INCREMENT MAY NOW INCREASE TO    3.815E-06

 ITERATION SUMMARY FOR THE INCREMENT:   1 TOTAL ITERATIONS, OF WHICH
   0 ARE SEVERE DISCONTINUITY ITERATIONS AND  1 ARE EQUILIBRIUM ITERATIONS.

 TIME INCREMENT COMPLETED  3.052E-06,  FRACTION OF STEP COMPLETED  1.326E-03
 STEP TIME COMPLETED       1.326E-05,  TOTAL TIME COMPLETED        1.326E-05


  INCREMENT     9 STARTS. ATTEMPT NUMBER  1, TIME INCREMENT  3.815E-06

  NUMBER OF EQUATIONS =      3006     NUMBER OF RHS =    1
  NUMBER OF FLOATING PT. OPERATIONS =  8.47E+05

     CHECK POINT   START OF SOLVER    

     CHECK POINT  END OF SOLVER       

       ELAPSED USER TIME (SEC)      =   0.0000    
       ELAPSED SYSTEM TIME (SEC)    =   0.0000    
       ELAPSED TOTAL CPU TIME (SEC) =   0.0000    
       ELAPSED WALLCLOCK TIME (SEC) =          0

               CONVERGENCE CHECKS FOR EQUILIBRIUM ITERATION     1


 AVERAGE FORCE                      2.502E-02   TIME AVG. FORCE       1.184E-02
 LARGEST RESIDUAL FORCE            -3.331E-16   AT NODE        501   DOF  2
   INSTANCE: BEAM                                                                            
 LARGEST INCREMENT OF DISP.        -9.841E-06   AT NODE        101   DOF  2
   INSTANCE: BEAM                                                                            
 LARGEST CORRECTION TO DISP.       -6.572E-06   AT NODE        501   DOF  2
   INSTANCE: BEAM                                                                            
          THE FORCE     EQUILIBRIUM RESPONSE WAS LINEAR IN THIS INCREMENT

 AVERAGE MOMENT                     3.492E-02   TIME AVG. MOMENT      1.098E-02
 LARGEST RESIDUAL MOMENT           -8.635E-16   AT NODE        101   DOF  6
   INSTANCE: BEAM                                                                            
 LARGEST INCREMENT OF ROTATION     -3.496E-07   AT NODE        101   DOF  6
   INSTANCE: BEAM                                                                            
 LARGEST CORRECTION TO ROTATION    -9.941E-07   AT NODE        101   DOF  6
   INSTANCE: BEAM                                                                            
          THE MOMENT    EQUILIBRIUM RESPONSE WAS LINEAR IN THIS INCREMENT

  MAXIMUM HALF-INCREMENT FORCE RESIDUAL IS  -0.169     AND OCCURS AT NODE        501 INSTANCE BEAM                                                                            
  MAXIMUM HALF-INCREMENT MOMENT RESIDUAL IS  -0.190     AND OCCURS AT NODE        501 INSTANCE BEAM                                                                            
          TIME INCREMENT MAY NOW INCREASE TO    4.768E-06

 ITERATION SUMMARY FOR THE INCREMENT:   1 TOTAL ITERATIONS, OF WHICH
   0 ARE SEVERE DISCONTINUITY ITERATIONS AND  1 ARE EQUILIBRIUM ITERATIONS.

 TIME INCREMENT COMPLETED  3.815E-06,  FRACTION OF STEP COMPLETED  1.707E-03
 STEP TIME COMPLETED       1.707E-05,  TOTAL TIME COMPLETED        1.707E-05


  INCREMENT    10 STARTS. ATTEMPT NUMBER  1, TIME INCREMENT  4.768E-06

  NUMBER OF EQUATIONS =      3006     NUMBER OF RHS =    1
  NUMBER OF FLOATING PT. OPERATIONS =  8.47E+05

     CHECK POINT   START OF SOLVER    

     CHECK POINT  END OF SOLVER       

       ELAPSED USER TIME (SEC)      =   0.0000    
       ELAPSED SYSTEM TIME (SEC)    =   0.0000    
       ELAPSED TOTAL CPU TIME (SEC) =   0.0000    
       ELAPSED WALLCLOCK TIME (SEC) =          0

               CONVERGENCE CHECKS FOR EQUILIBRIUM ITERATION     1


 AVERAGE FORCE                      3.293E-02   TIME AVG. FORCE       1.395E-02
 LARGEST RESIDUAL FORCE             3.192E-16   AT NODE        501   DOF  2
   INSTANCE: BEAM                                                                            
 LARGEST INCREMENT OF DISP.        -5.437E-06   AT NODE        501   DOF  2
   INSTANCE: BEAM                                                                            
 LARGEST CORRECTION TO DISP.        2.512E-05   AT NODE        101   DOF  2
   INSTANCE: BEAM                                                                            
          THE FORCE     EQUILIBRIUM RESPONSE WAS LINEAR IN THIS INCREMENT

 AVERAGE MOMENT                     5.699E-02   TIME AVG. MOMENT      1.558E-02
 LARGEST RESIDUAL MOMENT            1.242E-15   AT NODE        101   DOF  6
   INSTANCE: BEAM                                                                            
 LARGEST INCREMENT OF ROTATION     -7.853E-07   AT NODE        501   DOF  6
   INSTANCE: BEAM                                                                            
 LARGEST CORRECTION TO ROTATION     2.032E-06   AT NODE        101   DOF  6
   INSTANCE: BEAM                                                                            
          THE MOMENT    EQUILIBRIUM RESPONSE WAS LINEAR IN THIS INCREMENT

  MAXIMUM HALF-INCREMENT FORCE RESIDUAL IS   0.776     AND OCCURS AT NODE        101 INSTANCE BEAM                                                                            
  MAXIMUM HALF-INCREMENT MOMENT RESIDUAL IS  -0.476     AND OCCURS AT NODE        500 INSTANCE BEAM                                                                            
          TIME INCREMENT MAY NOW INCREASE TO    5.960E-06

 ITERATION SUMMARY FOR THE INCREMENT:   1 TOTAL ITERATIONS, OF WHICH
   0 ARE SEVERE DISCONTINUITY ITERATIONS AND  1 ARE EQUILIBRIUM ITERATIONS.

 TIME INCREMENT COMPLETED  4.768E-06,  FRACTION OF STEP COMPLETED  2.184E-03
 STEP TIME COMPLETED       2.184E-05,  TOTAL TIME COMPLETED        2.184E-05


  INCREMENT    11 STARTS. ATTEMPT NUMBER  1, TIME INCREMENT  5.960E-06

  NUMBER OF EQUATIONS =      3006     NUMBER OF RHS =    1
  NUMBER OF FLOATING PT. OPERATIONS =  8.47E+05

     CHECK POINT   START OF SOLVER    

     CHECK POINT  END OF SOLVER       

       ELAPSED USER TIME (SEC)      =   0.0000    
       ELAPSED SYSTEM TIME (SEC)    =   0.0000    
       ELAPSED TOTAL CPU TIME (SEC) =   0.0000    
       ELAPSED WALLCLOCK TIME (SEC) =          0

               CONVERGENCE CHECKS FOR EQUILIBRIUM ITERATION     1


 AVERAGE FORCE                      4.005E-02   TIME AVG. FORCE       1.632E-02
 LARGEST RESIDUAL FORCE             1.110E-15   AT NODE        501   DOF  2
   INSTANCE: BEAM                                                                            
 LARGEST INCREMENT OF DISP.         2.950E-05   AT NODE        101   DOF  2
   INSTANCE: BEAM                                                                            
 LARGEST CORRECTION TO DISP.       -3.564E-05   AT NODE        101   DOF  2
   INSTANCE: BEAM                                                                            
          THE FORCE     EQUILIBRIUM RESPONSE WAS LINEAR IN THIS INCREMENT

 AVERAGE MOMENT                     8.106E-02   TIME AVG. MOMENT      2.153E-02
 LARGEST RESIDUAL MOMENT            3.997E-15   AT NODE        500   DOF  6
   INSTANCE: BEAM                                                                            
 LARGEST INCREMENT OF ROTATION      2.931E-06   AT NODE        101   DOF  6
   INSTANCE: BEAM                                                                            
 LARGEST CORRECTION TO ROTATION     3.989E-06   AT NODE        500   DOF  6
   INSTANCE: BEAM                                                                            
          THE MOMENT    EQUILIBRIUM RESPONSE WAS LINEAR IN THIS INCREMENT

  MAXIMUM HALF-INCREMENT FORCE RESIDUAL IS   -1.02     AND OCCURS AT NODE        101 INSTANCE BEAM                                                                            
  MAXIMUM HALF-INCREMENT MOMENT RESIDUAL IS   0.896     AND OCCURS AT NODE        501 INSTANCE BEAM                                                                            
          TIME INCREMENT MAY NOW INCREASE TO    7.451E-06

 ITERATION SUMMARY FOR THE INCREMENT:   1 TOTAL ITERATIONS, OF WHICH
   0 ARE SEVERE DISCONTINUITY ITERATIONS AND  1 ARE EQUILIBRIUM ITERATIONS.

 TIME INCREMENT COMPLETED  5.960E-06,  FRACTION OF STEP COMPLETED  2.780E-03
 STEP TIME COMPLETED       2.780E-05,  TOTAL TIME COMPLETED        2.780E-05


  INCREMENT    12 STARTS. ATTEMPT NUMBER  1, TIME INCREMENT  7.451E-06

  NUMBER OF EQUATIONS =      3006     NUMBER OF RHS =    1
  NUMBER OF FLOATING PT. OPERATIONS =  8.47E+05

     CHECK POINT   START OF SOLVER    

     CHECK POINT  END OF SOLVER       

       ELAPSED USER TIME (SEC)      =   0.0000    
       ELAPSED SYSTEM TIME (SEC)    =   0.0000    
       ELAPSED TOTAL CPU TIME (SEC) =   0.0000    
       ELAPSED WALLCLOCK TIME (SEC) =          0

               CONVERGENCE CHECKS FOR EQUILIBRIUM ITERATION     1


 AVERAGE FORCE                      3.219E-02   TIME AVG. FORCE       1.764E-02
 LARGEST RESIDUAL FORCE            -2.637E-16   AT NODE        501   DOF  2
   INSTANCE: BEAM                                                                            
 LARGEST INCREMENT OF DISP.         3.457E-05   AT NODE        501   DOF  2
   INSTANCE: BEAM                                                                            
 LARGEST CORRECTION TO DISP.       -4.420E-05   AT NODE        501   DOF  2
   INSTANCE: BEAM                                                                            
          THE FORCE     EQUILIBRIUM RESPONSE WAS LINEAR IN THIS INCREMENT

 AVERAGE MOMENT                     0.192       TIME AVG. MOMENT      3.575E-02
 LARGEST RESIDUAL MOMENT           -3.669E-15   AT NODE        101   DOF  6
   INSTANCE: BEAM                                                                            
 LARGEST INCREMENT OF ROTATION      5.451E-06   AT NODE        500   DOF  6
   INSTANCE: BEAM                                                                            
 LARGEST CORRECTION TO ROTATION    -7.266E-06   AT NODE        501   DOF  6
   INSTANCE: BEAM                                                                            
          THE MOMENT    EQUILIBRIUM RESPONSE WAS LINEAR IN THIS INCREMENT

  MAXIMUM HALF-INCREMENT FORCE RESIDUAL IS   -1.27     AND OCCURS AT NODE        501 INSTANCE BEAM                                                                            
  MAXIMUM HALF-INCREMENT MOMENT RESIDUAL IS   -1.43     AND OCCURS AT NODE        501 INSTANCE BEAM                                                                            
          TIME INCREMENT MAY NOW INCREASE TO    9.313E-06

 ITERATION SUMMARY FOR THE INCREMENT:   1 TOTAL ITERATIONS, OF WHICH
   0 ARE SEVERE DISCONTINUITY ITERATIONS AND  1 ARE EQUILIBRIUM ITERATIONS.

 TIME INCREMENT COMPLETED  7.451E-06,  FRACTION OF STEP COMPLETED  3.525E-03
 STEP TIME COMPLETED       3.525E-05,  TOTAL TIME COMPLETED        3.525E-05


  INCREMENT    13 STARTS. ATTEMPT NUMBER  1, TIME INCREMENT  9.313E-06

  NUMBER OF EQUATIONS =      3006     NUMBER OF RHS =    1
  NUMBER OF FLOATING PT. OPERATIONS =  8.47E+05

     CHECK POINT   START OF SOLVER    

     CHECK POINT  END OF SOLVER       

       ELAPSED USER TIME (SEC)      =   0.0000    
       ELAPSED SYSTEM TIME (SEC)    =   0.0000    
       ELAPSED TOTAL CPU TIME (SEC) =   0.0000    
       ELAPSED WALLCLOCK TIME (SEC) =          0

               CONVERGENCE CHECKS FOR EQUILIBRIUM ITERATION     1


 AVERAGE FORCE                      3.925E-02   TIME AVG. FORCE       1.931E-02
 LARGEST RESIDUAL FORCE             1.027E-15   AT NODE        499   DOF  2
   INSTANCE: BEAM                                                                            
 LARGEST INCREMENT OF DISP.         3.538E-05   AT NODE        101   DOF  2
   INSTANCE: BEAM                                                                            
 LARGEST CORRECTION TO DISP.       -3.951E-05   AT NODE        500   DOF  2
   INSTANCE: BEAM                                                                            
          THE FORCE     EQUILIBRIUM RESPONSE WAS LINEAR IN THIS INCREMENT

 AVERAGE MOMENT                     0.191       TIME AVG. MOMENT      4.767E-02
 LARGEST RESIDUAL MOMENT           -1.243E-14   AT NODE        499   DOF  6
   INSTANCE: BEAM                                                                            
 LARGEST INCREMENT OF ROTATION      3.954E-06   AT NODE        100   DOF  6
   INSTANCE: BEAM                                                                            
 LARGEST CORRECTION TO ROTATION    -1.030E-05   AT NODE        499   DOF  6
   INSTANCE: BEAM                                                                            
          THE MOMENT    EQUILIBRIUM RESPONSE WAS LINEAR IN THIS INCREMENT

  MAXIMUM HALF-INCREMENT FORCE RESIDUAL IS    1.52     AND OCCURS AT NODE        501 INSTANCE BEAM                                                                            
  MAXIMUM HALF-INCREMENT MOMENT RESIDUAL IS   -1.85     AND OCCURS AT NODE        499 INSTANCE BEAM                                                                            
          TIME INCREMENT MAY NOW INCREASE TO    1.164E-05

 ITERATION SUMMARY FOR THE INCREMENT:   1 TOTAL ITERATIONS, OF WHICH
   0 ARE SEVERE DISCONTINUITY ITERATIONS AND  1 ARE EQUILIBRIUM ITERATIONS.

 TIME INCREMENT COMPLETED  9.313E-06,  FRACTION OF STEP COMPLETED  4.457E-03
 STEP TIME COMPLETED       4.457E-05,  TOTAL TIME COMPLETED        4.457E-05


  INCREMENT    14 STARTS. ATTEMPT NUMBER  1, TIME INCREMENT  1.164E-05

  NUMBER OF EQUATIONS =      3006     NUMBER OF RHS =    1
  NUMBER OF FLOATING PT. OPERATIONS =  8.47E+05

     CHECK POINT   START OF SOLVER    

     CHECK POINT  END OF SOLVER       

       ELAPSED USER TIME (SEC)      =   0.0000    
       ELAPSED SYSTEM TIME (SEC)    =   0.0000    
       ELAPSED TOTAL CPU TIME (SEC) =   0.0000    
       ELAPSED WALLCLOCK TIME (SEC) =          0

               CONVERGENCE CHECKS FOR EQUILIBRIUM ITERATION     1


 AVERAGE FORCE                      3.647E-02   TIME AVG. FORCE       2.053E-02
 LARGEST RESIDUAL FORCE            -9.267E-16   AT NODE        498   DOF  1
   INSTANCE: BEAM                                                                            
 LARGEST INCREMENT OF DISP.         3.544E-05   AT NODE        100   DOF  2
   INSTANCE: BEAM                                                                            
 LARGEST CORRECTION TO DISP.       -5.621E-05   AT NODE        101   DOF  2
   INSTANCE: BEAM                                                                            
          THE FORCE     EQUILIBRIUM RESPONSE WAS LINEAR IN THIS INCREMENT

 AVERAGE MOMENT                     0.145       TIME AVG. MOMENT      5.463E-02
 LARGEST RESIDUAL MOMENT            1.128E-14   AT NODE        499   DOF  6
   INSTANCE: BEAM                                                                            
 LARGEST INCREMENT OF ROTATION     -2.322E-06   AT NODE        499   DOF  6
   INSTANCE: BEAM                                                                            
 LARGEST CORRECTION TO ROTATION     1.437E-05   AT NODE        500   DOF  6
   INSTANCE: BEAM                                                                            
          THE MOMENT    EQUILIBRIUM RESPONSE WAS LINEAR IN THIS INCREMENT

  MAXIMUM HALF-INCREMENT FORCE RESIDUAL IS   -1.35     AND OCCURS AT NODE        501 INSTANCE BEAM                                                                            
  MAXIMUM HALF-INCREMENT MOMENT RESIDUAL IS    2.89     AND OCCURS AT NODE        499 INSTANCE BEAM                                                                            
          TIME INCREMENT MAY NOW INCREASE TO    1.455E-05

 ITERATION SUMMARY FOR THE INCREMENT:   1 TOTAL ITERATIONS, OF WHICH
   0 ARE SEVERE DISCONTINUITY ITERATIONS AND  1 ARE EQUILIBRIUM ITERATIONS.

 TIME INCREMENT COMPLETED  1.164E-05,  FRACTION OF STEP COMPLETED  5.621E-03
 STEP TIME COMPLETED       5.621E-05,  TOTAL TIME COMPLETED        5.621E-05


  INCREMENT    15 STARTS. ATTEMPT NUMBER  1, TIME INCREMENT  1.455E-05

  NUMBER OF EQUATIONS =      3006     NUMBER OF RHS =    1
  NUMBER OF FLOATING PT. OPERATIONS =  8.47E+05

     CHECK POINT   START OF SOLVER    

     CHECK POINT  END OF SOLVER       

       ELAPSED USER TIME (SEC)      =   0.0000    
       ELAPSED SYSTEM TIME (SEC)    =   0.0000    
       ELAPSED TOTAL CPU TIME (SEC) =   0.0000    
       ELAPSED WALLCLOCK TIME (SEC) =          0

               CONVERGENCE CHECKS FOR EQUILIBRIUM ITERATION     1


 AVERAGE FORCE                      2.878E-02   TIME AVG. FORCE       2.108E-02
 LARGEST RESIDUAL FORCE            -1.207E-15   AT NODE        496   DOF  2
   INSTANCE: BEAM                                                                            
 LARGEST INCREMENT OF DISP.         3.752E-05   AT NODE        496   DOF  2
   INSTANCE: BEAM                                                                            
 LARGEST CORRECTION TO DISP.        8.727E-05   AT NODE        101   DOF  2
   INSTANCE: BEAM                                                                            
          THE FORCE     EQUILIBRIUM RESPONSE WAS LINEAR IN THIS INCREMENT

 AVERAGE MOMENT                     0.134       TIME AVG. MOMENT      5.995E-02
 LARGEST RESIDUAL MOMENT            7.938E-15   AT NODE        100   DOF  6
   INSTANCE: BEAM                                                                            
 LARGEST INCREMENT OF ROTATION      2.731E-06   AT NODE        493   DOF  6
   INSTANCE: BEAM                                                                            
 LARGEST CORRECTION TO ROTATION     1.080E-05   AT NODE        100   DOF  6
   INSTANCE: BEAM                                                                            
          THE MOMENT    EQUILIBRIUM RESPONSE WAS LINEAR IN THIS INCREMENT

  MAXIMUM HALF-INCREMENT FORCE RESIDUAL IS   -1.76     AND OCCURS AT NODE        500 INSTANCE BEAM                                                                            
  MAXIMUM HALF-INCREMENT MOMENT RESIDUAL IS   -3.51     AND OCCURS AT NODE        500 INSTANCE BEAM                                                                            
          TIME INCREMENT MAY NOW INCREASE TO    1.819E-05

 ITERATION SUMMARY FOR THE INCREMENT:   1 TOTAL ITERATIONS, OF WHICH
   0 ARE SEVERE DISCONTINUITY ITERATIONS AND  1 ARE EQUILIBRIUM ITERATIONS.

 TIME INCREMENT COMPLETED  1.455E-05,  FRACTION OF STEP COMPLETED  7.076E-03
 STEP TIME COMPLETED       7.076E-05,  TOTAL TIME COMPLETED        7.076E-05


  INCREMENT    16 STARTS. ATTEMPT NUMBER  1, TIME INCREMENT  1.819E-05

  NUMBER OF EQUATIONS =      3006     NUMBER OF RHS =    1
  NUMBER OF FLOATING PT. OPERATIONS =  8.47E+05

     CHECK POINT   START OF SOLVER    

     CHECK POINT  END OF SOLVER       

       ELAPSED USER TIME (SEC)      =   0.0000    
       ELAPSED SYSTEM TIME (SEC)    =   0.0000    
       ELAPSED TOTAL CPU TIME (SEC) =   0.0000    
       ELAPSED WALLCLOCK TIME (SEC) =          0

               CONVERGENCE CHECKS FOR EQUILIBRIUM ITERATION     1


 AVERAGE FORCE                      2.499E-02   TIME AVG. FORCE       2.133E-02
 LARGEST RESIDUAL FORCE            -2.630E-15   AT NODE        498   DOF  2
   INSTANCE: BEAM                                                                            
 LARGEST INCREMENT OF DISP.         3.837E-05   AT NODE        493   DOF  2
   INSTANCE: BEAM                                                                            
 LARGEST CORRECTION TO DISP.       -8.248E-05   AT NODE        101   DOF  2
   INSTANCE: BEAM                                                                            
          THE FORCE     EQUILIBRIUM RESPONSE WAS LINEAR IN THIS INCREMENT

 AVERAGE MOMENT                     0.129       TIME AVG. MOMENT      6.426E-02
 LARGEST RESIDUAL MOMENT           -1.128E-14   AT NODE        100   DOF  6
   INSTANCE: BEAM                                                                            
 LARGEST INCREMENT OF ROTATION      3.441E-06   AT NODE        490   DOF  6
   INSTANCE: BEAM                                                                            
 LARGEST CORRECTION TO ROTATION    -1.589E-05   AT NODE        100   DOF  6
   INSTANCE: BEAM                                                                            
          THE MOMENT    EQUILIBRIUM RESPONSE WAS LINEAR IN THIS INCREMENT

  MAXIMUM HALF-INCREMENT FORCE RESIDUAL IS    2.11     AND OCCURS AT NODE        500 INSTANCE BEAM                                                                            
  MAXIMUM HALF-INCREMENT MOMENT RESIDUAL IS    5.35     AND OCCURS AT NODE        500 INSTANCE BEAM                                                                            
          TIME INCREMENT MAY NOW INCREASE TO    2.274E-05

 ITERATION SUMMARY FOR THE INCREMENT:   1 TOTAL ITERATIONS, OF WHICH
   0 ARE SEVERE DISCONTINUITY ITERATIONS AND  1 ARE EQUILIBRIUM ITERATIONS.

 TIME INCREMENT COMPLETED  1.819E-05,  FRACTION OF STEP COMPLETED  8.895E-03
 STEP TIME COMPLETED       8.895E-05,  TOTAL TIME COMPLETED        8.895E-05


  INCREMENT    17 STARTS. ATTEMPT NUMBER  1, TIME INCREMENT  2.274E-05

  NUMBER OF EQUATIONS =      3006     NUMBER OF RHS =    1
  NUMBER OF FLOATING PT. OPERATIONS =  8.47E+05

     CHECK POINT   START OF SOLVER    

     CHECK POINT  END OF SOLVER       

       ELAPSED USER TIME (SEC)      =   0.0000    
       ELAPSED SYSTEM TIME (SEC)    =   0.0000    
       ELAPSED TOTAL CPU TIME (SEC) =   0.0000    
       ELAPSED WALLCLOCK TIME (SEC) =          0

               CONVERGENCE CHECKS FOR EQUILIBRIUM ITERATION     1


 AVERAGE FORCE                      2.364E-02   TIME AVG. FORCE       2.146E-02
 LARGEST RESIDUAL FORCE            -2.748E-15   AT NODE        100   DOF  2
   INSTANCE: BEAM                                                                            
 LARGEST INCREMENT OF DISP.         3.738E-05   AT NODE        490   DOF  2
   INSTANCE: BEAM                                                                            
 LARGEST CORRECTION TO DISP.       -9.350E-05   AT NODE        501   DOF  2
   INSTANCE: BEAM                                                                            
          THE FORCE     EQUILIBRIUM RESPONSE WAS LINEAR IN THIS INCREMENT

 AVERAGE MOMENT                     0.115       TIME AVG. MOMENT      6.724E-02
 LARGEST RESIDUAL MOMENT            1.581E-14   AT NODE        497   DOF  6
   INSTANCE: BEAM                                                                            
 LARGEST INCREMENT OF ROTATION      3.474E-06   AT NODE        486   DOF  6
   INSTANCE: BEAM                                                                            
 LARGEST CORRECTION TO ROTATION     2.168E-05   AT NODE        498   DOF  6
   INSTANCE: BEAM                                                                            
          THE MOMENT    EQUILIBRIUM RESPONSE WAS LINEAR IN THIS INCREMENT

  MAXIMUM HALF-INCREMENT FORCE RESIDUAL IS    2.75     AND OCCURS AT NODE        101 INSTANCE BEAM                                                                            
  MAXIMUM HALF-INCREMENT MOMENT RESIDUAL IS   -7.47     AND OCCURS AT NODE        500 INSTANCE BEAM                                                                            
          TIME INCREMENT MAY NOW INCREASE TO    2.842E-05

 ITERATION SUMMARY FOR THE INCREMENT:   1 TOTAL ITERATIONS, OF WHICH
   0 ARE SEVERE DISCONTINUITY ITERATIONS AND  1 ARE EQUILIBRIUM ITERATIONS.

 TIME INCREMENT COMPLETED  2.274E-05,  FRACTION OF STEP COMPLETED  1.117E-02
 STEP TIME COMPLETED       1.117E-04,  TOTAL TIME COMPLETED        1.117E-04


  INCREMENT    18 STARTS. ATTEMPT NUMBER  1, TIME INCREMENT  2.842E-05

  NUMBER OF EQUATIONS =      3006     NUMBER OF RHS =    1
  NUMBER OF FLOATING PT. OPERATIONS =  8.47E+05

     CHECK POINT   START OF SOLVER    

     CHECK POINT  END OF SOLVER       

       ELAPSED USER TIME (SEC)      =   0.0000    
       ELAPSED SYSTEM TIME (SEC)    =   0.0000    
       ELAPSED TOTAL CPU TIME (SEC) =   0.0000    
       ELAPSED WALLCLOCK TIME (SEC) =          0

               CONVERGENCE CHECKS FOR EQUILIBRIUM ITERATION     1


 AVERAGE FORCE                      2.017E-02   TIME AVG. FORCE       2.139E-02
 LARGEST RESIDUAL FORCE            -5.398E-15   AT NODE        500   DOF  2
   INSTANCE: BEAM                                                                            
 LARGEST INCREMENT OF DISP.        -3.753E-05   AT NODE         95   DOF  2
   INSTANCE: BEAM                                                                            
 LARGEST CORRECTION TO DISP.        1.170E-04   AT NODE        501   DOF  2
   INSTANCE: BEAM                                                                            
          THE FORCE     EQUILIBRIUM RESPONSE WAS LINEAR IN THIS INCREMENT

 AVERAGE MOMENT                     0.110       TIME AVG. MOMENT      6.960E-02
 LARGEST RESIDUAL MOMENT           -2.154E-14   AT NODE        498   DOF  6
   INSTANCE: BEAM                                                                            
 LARGEST INCREMENT OF ROTATION      3.708E-06   AT NODE        482   DOF  6
   INSTANCE: BEAM                                                                            
 LARGEST CORRECTION TO ROTATION    -2.467E-05   AT NODE        498   DOF  6
   INSTANCE: BEAM                                                                            
          THE MOMENT    EQUILIBRIUM RESPONSE WAS LINEAR IN THIS INCREMENT

  MAXIMUM HALF-INCREMENT FORCE RESIDUAL IS    4.64     AND OCCURS AT NODE        501 INSTANCE BEAM                                                                            
  MAXIMUM HALF-INCREMENT MOMENT RESIDUAL IS    9.93     AND OCCURS AT NODE        500 INSTANCE BEAM                                                                            
          TIME INCREMENT MAY NOW INCREASE TO    3.553E-05

 ITERATION SUMMARY FOR THE INCREMENT:   1 TOTAL ITERATIONS, OF WHICH
   0 ARE SEVERE DISCONTINUITY ITERATIONS AND  1 ARE EQUILIBRIUM ITERATIONS.

 TIME INCREMENT COMPLETED  2.842E-05,  FRACTION OF STEP COMPLETED  1.401E-02
 STEP TIME COMPLETED       1.401E-04,  TOTAL TIME COMPLETED        1.401E-04


  INCREMENT    19 STARTS. ATTEMPT NUMBER  1, TIME INCREMENT  3.553E-05

  NUMBER OF EQUATIONS =      3006     NUMBER OF RHS =    1
  NUMBER OF FLOATING PT. OPERATIONS =  8.47E+05

     CHECK POINT   START OF SOLVER    

     CHECK POINT  END OF SOLVER       

       ELAPSED USER TIME (SEC)      =   0.0000    
       ELAPSED SYSTEM TIME (SEC)    =   0.0000    
       ELAPSED TOTAL CPU TIME (SEC) =   0.0000    
       ELAPSED WALLCLOCK TIME (SEC) =          0

               CONVERGENCE CHECKS FOR EQUILIBRIUM ITERATION     1


 AVERAGE FORCE                      1.711E-02   TIME AVG. FORCE       2.117E-02
 LARGEST RESIDUAL FORCE             4.104E-15   AT NODE        501   DOF  2
   INSTANCE: BEAM                                                                            
 LARGEST INCREMENT OF DISP.        -4.912E-05   AT NODE         94   DOF  2
   INSTANCE: BEAM                                                                            
 LARGEST CORRECTION TO DISP.       -1.270E-04   AT NODE        501   DOF  2
   INSTANCE: BEAM                                                                            
          THE FORCE     EQUILIBRIUM RESPONSE WAS LINEAR IN THIS INCREMENT

 AVERAGE MOMENT                     9.926E-02   TIME AVG. MOMENT      7.116E-02
 LARGEST RESIDUAL MOMENT            1.515E-14   AT NODE        498   DOF  6
   INSTANCE: BEAM                                                                            
 LARGEST INCREMENT OF ROTATION      4.116E-06   AT NODE        478   DOF  6
   INSTANCE: BEAM                                                                            
 LARGEST CORRECTION TO ROTATION     2.531E-05   AT NODE        498   DOF  6
   INSTANCE: BEAM                                                                            
          THE MOMENT    EQUILIBRIUM RESPONSE WAS LINEAR IN THIS INCREMENT

  MAXIMUM HALF-INCREMENT FORCE RESIDUAL IS   -8.03     AND OCCURS AT NODE        501 INSTANCE BEAM                                                                            
  MAXIMUM HALF-INCREMENT MOMENT RESIDUAL IS   -12.8     AND OCCURS AT NODE        500 INSTANCE BEAM                                                                            
          TIME INCREMENT MAY NOW INCREASE TO    4.441E-05

 ITERATION SUMMARY FOR THE INCREMENT:   1 TOTAL ITERATIONS, OF WHICH
   0 ARE SEVERE DISCONTINUITY ITERATIONS AND  1 ARE EQUILIBRIUM ITERATIONS.

 TIME INCREMENT COMPLETED  3.553E-05,  FRACTION OF STEP COMPLETED  1.756E-02
 STEP TIME COMPLETED       1.756E-04,  TOTAL TIME COMPLETED        1.756E-04


  INCREMENT    20 STARTS. ATTEMPT NUMBER  1, TIME INCREMENT  4.441E-05

  NUMBER OF EQUATIONS =      3006     NUMBER OF RHS =    1
  NUMBER OF FLOATING PT. OPERATIONS =  8.47E+05

     CHECK POINT   START OF SOLVER    

     CHECK POINT  END OF SOLVER       

       ELAPSED USER TIME (SEC)      =   0.0000    
       ELAPSED SYSTEM TIME (SEC)    =   0.0000    
       ELAPSED TOTAL CPU TIME (SEC) =   0.0000    
       ELAPSED WALLCLOCK TIME (SEC) =          0

               CONVERGENCE CHECKS FOR EQUILIBRIUM ITERATION     1


 AVERAGE FORCE                      1.511E-02   TIME AVG. FORCE       2.086E-02
 LARGEST RESIDUAL FORCE             6.495E-15   AT NODE        497   DOF  2
   INSTANCE: BEAM                                                                            
 LARGEST INCREMENT OF DISP.        -5.377E-05   AT NODE        469   DOF  2
   INSTANCE: BEAM                                                                            
 LARGEST CORRECTION TO DISP.        1.358E-04   AT NODE        501   DOF  2
   INSTANCE: BEAM                                                                            
          THE FORCE     EQUILIBRIUM RESPONSE WAS LINEAR IN THIS INCREMENT

 AVERAGE MOMENT                     9.590E-02   TIME AVG. MOMENT      7.240E-02
 LARGEST RESIDUAL MOMENT            1.926E-14   AT NODE        492   DOF  6
   INSTANCE: BEAM                                                                            
 LARGEST INCREMENT OF ROTATION      4.033E-06   AT NODE         94   DOF  6
   INSTANCE: BEAM                                                                            
 LARGEST CORRECTION TO ROTATION    -2.478E-05   AT NODE        498   DOF  6
   INSTANCE: BEAM                                                                            
          THE MOMENT    EQUILIBRIUM RESPONSE WAS LINEAR IN THIS INCREMENT

  MAXIMUM HALF-INCREMENT FORCE RESIDUAL IS    12.6     AND OCCURS AT NODE        501 INSTANCE BEAM                                                                            
  MAXIMUM HALF-INCREMENT MOMENT RESIDUAL IS   -16.8     AND OCCURS AT NODE        498 INSTANCE BEAM                                                                            
          TIME INCREMENT MAY NOW INCREASE TO    5.551E-05

 ITERATION SUMMARY FOR THE INCREMENT:   1 TOTAL ITERATIONS, OF WHICH
   0 ARE SEVERE DISCONTINUITY ITERATIONS AND  1 ARE EQUILIBRIUM ITERATIONS.

 TIME INCREMENT COMPLETED  4.441E-05,  FRACTION OF STEP COMPLETED  2.200E-02
 STEP TIME COMPLETED       2.200E-04,  TOTAL TIME COMPLETED        2.200E-04


  INCREMENT    21 STARTS. ATTEMPT NUMBER  1, TIME INCREMENT  5.551E-05

  NUMBER OF EQUATIONS =      3006     NUMBER OF RHS =    1
  NUMBER OF FLOATING PT. OPERATIONS =  8.47E+05

     CHECK POINT   START OF SOLVER    

     CHECK POINT  END OF SOLVER       

       ELAPSED USER TIME (SEC)      =   0.0000    
       ELAPSED SYSTEM TIME (SEC)    =   0.0000    
       ELAPSED TOTAL CPU TIME (SEC) =   0.0000    
       ELAPSED WALLCLOCK TIME (SEC) =          0

               CONVERGENCE CHECKS FOR EQUILIBRIUM ITERATION     1


 AVERAGE FORCE                      1.329E-02   TIME AVG. FORCE       2.050E-02
 LARGEST RESIDUAL FORCE             4.649E-15   AT NODE        496   DOF  2
   INSTANCE: BEAM                                                                            
 LARGEST INCREMENT OF DISP.        -5.751E-05   AT NODE        463   DOF  2
   INSTANCE: BEAM                                                                            
 LARGEST CORRECTION TO DISP.       -1.351E-04   AT NODE        501   DOF  2
   INSTANCE: BEAM                                                                            
          THE FORCE     EQUILIBRIUM RESPONSE WAS LINEAR IN THIS INCREMENT

 AVERAGE MOMENT                     9.339E-02   TIME AVG. MOMENT      7.340E-02
 LARGEST RESIDUAL MOMENT            1.910E-14   AT NODE        499   DOF  6
   INSTANCE: BEAM                                                                            
 LARGEST INCREMENT OF ROTATION      4.010E-06   AT NODE        469   DOF  6
   INSTANCE: BEAM                                                                            
 LARGEST CORRECTION TO ROTATION     2.688E-05   AT NODE        499   DOF  6
   INSTANCE: BEAM                                                                            
          THE MOMENT    EQUILIBRIUM RESPONSE WAS LINEAR IN THIS INCREMENT

  MAXIMUM HALF-INCREMENT FORCE RESIDUAL IS   -18.7     AND OCCURS AT NODE        501 INSTANCE BEAM                                                                            
  MAXIMUM HALF-INCREMENT MOMENT RESIDUAL IS    23.9     AND OCCURS AT NODE        498 INSTANCE BEAM                                                                            

 ITERATION SUMMARY FOR THE INCREMENT:   1 TOTAL ITERATIONS, OF WHICH
   0 ARE SEVERE DISCONTINUITY ITERATIONS AND  1 ARE EQUILIBRIUM ITERATIONS.

 TIME INCREMENT COMPLETED  5.551E-05,  FRACTION OF STEP COMPLETED  2.756E-02
 STEP TIME COMPLETED       2.756E-04,  TOTAL TIME COMPLETED        2.756E-04


  INCREMENT    22 STARTS. ATTEMPT NUMBER  1, TIME INCREMENT  5.551E-05

  NUMBER OF EQUATIONS =      3006     NUMBER OF RHS =    1
  NUMBER OF FLOATING PT. OPERATIONS =  8.47E+05

     CHECK POINT   START OF SOLVER    

     CHECK POINT  END OF SOLVER       

       ELAPSED USER TIME (SEC)      =   0.0000    
       ELAPSED SYSTEM TIME (SEC)    =   0.0000    
       ELAPSED TOTAL CPU TIME (SEC) =   0.0000    
       ELAPSED WALLCLOCK TIME (SEC) =          0

               CONVERGENCE CHECKS FOR EQUILIBRIUM ITERATION     1


 AVERAGE FORCE                      1.192E-02   TIME AVG. FORCE       2.011E-02
 LARGEST RESIDUAL FORCE            -5.041E-15   AT NODE        100   DOF  2
   INSTANCE: BEAM                                                                            
 LARGEST INCREMENT OF DISP.        -5.706E-05   AT NODE        457   DOF  2
   INSTANCE: BEAM                                                                            
 LARGEST CORRECTION TO DISP.       -1.139E-04   AT NODE        500   DOF  2
   INSTANCE: BEAM                                                                            
          THE FORCE     EQUILIBRIUM RESPONSE WAS LINEAR IN THIS INCREMENT

 AVERAGE MOMENT                     8.752E-02   TIME AVG. MOMENT      7.404E-02
 LARGEST RESIDUAL MOMENT           -1.305E-14   AT NODE        499   DOF  6
   INSTANCE: BEAM                                                                            
 LARGEST INCREMENT OF ROTATION      3.338E-06   AT NODE        462   DOF  6
   INSTANCE: BEAM                                                                            
 LARGEST CORRECTION TO ROTATION    -2.132E-05   AT NODE        499   DOF  6
   INSTANCE: BEAM                                                                            
          THE MOMENT    EQUILIBRIUM RESPONSE WAS LINEAR IN THIS INCREMENT

  MAXIMUM HALF-INCREMENT FORCE RESIDUAL IS    17.8     AND OCCURS AT NODE        501 INSTANCE BEAM                                                                            
  MAXIMUM HALF-INCREMENT MOMENT RESIDUAL IS   -21.7     AND OCCURS AT NODE        498 INSTANCE BEAM                                                                            

 ITERATION SUMMARY FOR THE INCREMENT:   1 TOTAL ITERATIONS, OF WHICH
   0 ARE SEVERE DISCONTINUITY ITERATIONS AND  1 ARE EQUILIBRIUM ITERATIONS.

 TIME INCREMENT COMPLETED  5.551E-05,  FRACTION OF STEP COMPLETED  3.311E-02
 STEP TIME COMPLETED       3.311E-04,  TOTAL TIME COMPLETED        3.311E-04


  INCREMENT    23 STARTS. ATTEMPT NUMBER  1, TIME INCREMENT  5.551E-05

  NUMBER OF EQUATIONS =      3006     NUMBER OF RHS =    1
  NUMBER OF FLOATING PT. OPERATIONS =  8.47E+05

     CHECK POINT   START OF SOLVER    

     CHECK POINT  END OF SOLVER       

       ELAPSED USER TIME (SEC)      =   0.0000    
       ELAPSED SYSTEM TIME (SEC)    =   0.0000    
       ELAPSED TOTAL CPU TIME (SEC) =   0.0000    
       ELAPSED WALLCLOCK TIME (SEC) =          0

               CONVERGENCE CHECKS FOR EQUILIBRIUM ITERATION     1


 AVERAGE FORCE                      1.030E-02   TIME AVG. FORCE       1.969E-02
 LARGEST RESIDUAL FORCE            -4.906E-15   AT NODE        497   DOF  2
   INSTANCE: BEAM                                                                            
 LARGEST INCREMENT OF DISP.        -5.851E-05   AT NODE        450   DOF  2
   INSTANCE: BEAM                                                                            
 LARGEST CORRECTION TO DISP.        1.140E-04   AT NODE        500   DOF  2
   INSTANCE: BEAM                                                                            
          THE FORCE     EQUILIBRIUM RESPONSE WAS LINEAR IN THIS INCREMENT

 AVERAGE MOMENT                     8.280E-02   TIME AVG. MOMENT      7.442E-02
 LARGEST RESIDUAL MOMENT            1.568E-14   AT NODE        499   DOF  6
   INSTANCE: BEAM                                                                            
 LARGEST INCREMENT OF ROTATION     -3.053E-06   AT NODE        445   DOF  6
   INSTANCE: BEAM                                                                            
 LARGEST CORRECTION TO ROTATION    -1.994E-05   AT NODE        496   DOF  6
   INSTANCE: BEAM                                                                            
          THE MOMENT    EQUILIBRIUM RESPONSE WAS LINEAR IN THIS INCREMENT

  MAXIMUM HALF-INCREMENT FORCE RESIDUAL IS   -16.7     AND OCCURS AT NODE        501 INSTANCE BEAM                                                                            
  MAXIMUM HALF-INCREMENT MOMENT RESIDUAL IS    19.5     AND OCCURS AT NODE        498 INSTANCE BEAM                                                                            

 ITERATION SUMMARY FOR THE INCREMENT:   1 TOTAL ITERATIONS, OF WHICH
   0 ARE SEVERE DISCONTINUITY ITERATIONS AND  1 ARE EQUILIBRIUM ITERATIONS.

 TIME INCREMENT COMPLETED  5.551E-05,  FRACTION OF STEP COMPLETED  3.866E-02
 STEP TIME COMPLETED       3.866E-04,  TOTAL TIME COMPLETED        3.866E-04


  INCREMENT    24 STARTS. ATTEMPT NUMBER  1, TIME INCREMENT  5.551E-05

  NUMBER OF EQUATIONS =      3006     NUMBER OF RHS =    1
  NUMBER OF FLOATING PT. OPERATIONS =  8.47E+05

     CHECK POINT   START OF SOLVER    

     CHECK POINT  END OF SOLVER       

       ELAPSED USER TIME (SEC)      =   0.0000    
       ELAPSED SYSTEM TIME (SEC)    =   0.0000    
       ELAPSED TOTAL CPU TIME (SEC) =   0.0000    
       ELAPSED WALLCLOCK TIME (SEC) =          0

               CONVERGENCE CHECKS FOR EQUILIBRIUM ITERATION     1


 AVERAGE FORCE                      9.409E-03   TIME AVG. FORCE       1.926E-02
 LARGEST RESIDUAL FORCE            -7.633E-15   AT NODE         99   DOF  2
   INSTANCE: BEAM                                                                            
 LARGEST INCREMENT OF DISP.        -5.558E-05   AT NODE        445   DOF  2
   INSTANCE: BEAM                                                                            
 LARGEST CORRECTION TO DISP.       -1.104E-04   AT NODE        500   DOF  2
   INSTANCE: BEAM                                                                            
          THE FORCE     EQUILIBRIUM RESPONSE WAS LINEAR IN THIS INCREMENT

 AVERAGE MOMENT                     7.612E-02   TIME AVG. MOMENT      7.449E-02
 LARGEST RESIDUAL MOMENT            1.697E-14   AT NODE        495   DOF  6
   INSTANCE: BEAM                                                                            
 LARGEST INCREMENT OF ROTATION     -3.048E-06   AT NODE         85   DOF  6
   INSTANCE: BEAM                                                                            
 LARGEST CORRECTION TO ROTATION     2.040E-05   AT NODE        496   DOF  6
   INSTANCE: BEAM                                                                            
          THE MOMENT    EQUILIBRIUM RESPONSE WAS LINEAR IN THIS INCREMENT

  MAXIMUM HALF-INCREMENT FORCE RESIDUAL IS    15.5     AND OCCURS AT NODE        501 INSTANCE BEAM                                                                            
  MAXIMUM HALF-INCREMENT MOMENT RESIDUAL IS   -17.3     AND OCCURS AT NODE        498 INSTANCE BEAM                                                                            

 ITERATION SUMMARY FOR THE INCREMENT:   1 TOTAL ITERATIONS, OF WHICH
   0 ARE SEVERE DISCONTINUITY ITERATIONS AND  1 ARE EQUILIBRIUM ITERATIONS.

 TIME INCREMENT COMPLETED  5.551E-05,  FRACTION OF STEP COMPLETED  4.421E-02
 STEP TIME COMPLETED       4.421E-04,  TOTAL TIME COMPLETED        4.421E-04


  INCREMENT    25 STARTS. ATTEMPT NUMBER  1, TIME INCREMENT  5.551E-05

  NUMBER OF EQUATIONS =      3006     NUMBER OF RHS =    1
  NUMBER OF FLOATING PT. OPERATIONS =  8.47E+05

     CHECK POINT   START OF SOLVER    

     CHECK POINT  END OF SOLVER       

       ELAPSED USER TIME (SEC)      =   0.0000    
       ELAPSED SYSTEM TIME (SEC)    =   0.0000    
       ELAPSED TOTAL CPU TIME (SEC) =   0.0000    
       ELAPSED WALLCLOCK TIME (SEC) =          0

               CONVERGENCE CHECKS FOR EQUILIBRIUM ITERATION     1


 AVERAGE FORCE                      8.608E-03   TIME AVG. FORCE       1.883E-02
 LARGEST RESIDUAL FORCE             7.508E-15   AT NODE        100   DOF  2
   INSTANCE: BEAM                                                                            
 LARGEST INCREMENT OF DISP.        -4.921E-05   AT NODE        439   DOF  2
   INSTANCE: BEAM                                                                            
 LARGEST CORRECTION TO DISP.        1.052E-04   AT NODE        500   DOF  2
   INSTANCE: BEAM                                                                            
          THE FORCE     EQUILIBRIUM RESPONSE WAS LINEAR IN THIS INCREMENT

 AVERAGE MOMENT                     7.269E-02   TIME AVG. MOMENT      7.442E-02
 LARGEST RESIDUAL MOMENT           -2.169E-14   AT NODE        497   DOF  6
   INSTANCE: BEAM                                                                            
 LARGEST INCREMENT OF ROTATION     -3.127E-06   AT NODE        431   DOF  6
   INSTANCE: BEAM                                                                            
 LARGEST CORRECTION TO ROTATION    -2.027E-05   AT NODE        497   DOF  6
   INSTANCE: BEAM                                                                            
          THE MOMENT    EQUILIBRIUM RESPONSE WAS LINEAR IN THIS INCREMENT

  MAXIMUM HALF-INCREMENT FORCE RESIDUAL IS   -14.3     AND OCCURS AT NODE        501 INSTANCE BEAM                                                                            
  MAXIMUM HALF-INCREMENT MOMENT RESIDUAL IS    15.1     AND OCCURS AT NODE        498 INSTANCE BEAM                                                                            

 ITERATION SUMMARY FOR THE INCREMENT:   1 TOTAL ITERATIONS, OF WHICH
   0 ARE SEVERE DISCONTINUITY ITERATIONS AND  1 ARE EQUILIBRIUM ITERATIONS.

 TIME INCREMENT COMPLETED  5.551E-05,  FRACTION OF STEP COMPLETED  4.976E-02
 STEP TIME COMPLETED       4.976E-04,  TOTAL TIME COMPLETED        4.976E-04


  INCREMENT    26 STARTS. ATTEMPT NUMBER  1, TIME INCREMENT  5.551E-05

  NUMBER OF EQUATIONS =      3006     NUMBER OF RHS =    1
  NUMBER OF FLOATING PT. OPERATIONS =  8.47E+05

     CHECK POINT   START OF SOLVER    

     CHECK POINT  END OF SOLVER       

       ELAPSED USER TIME (SEC)      =   0.0000    
       ELAPSED SYSTEM TIME (SEC)    =   0.0000    
       ELAPSED TOTAL CPU TIME (SEC) =   0.0000    
       ELAPSED WALLCLOCK TIME (SEC) =          0

               CONVERGENCE CHECKS FOR EQUILIBRIUM ITERATION     1


 AVERAGE FORCE                      7.973E-03   TIME AVG. FORCE       1.841E-02
 LARGEST RESIDUAL FORCE            -8.223E-15   AT NODE        500   DOF  2
   INSTANCE: BEAM                                                                            
 LARGEST INCREMENT OF DISP.        -4.522E-05   AT NODE        433   DOF  2
   INSTANCE: BEAM                                                                            
 LARGEST CORRECTION TO DISP.       -9.866E-05   AT NODE        500   DOF  2
   INSTANCE: BEAM                                                                            
          THE FORCE     EQUILIBRIUM RESPONSE WAS LINEAR IN THIS INCREMENT

 AVERAGE MOMENT                     6.899E-02   TIME AVG. MOMENT      7.421E-02
 LARGEST RESIDUAL MOMENT            1.664E-14   AT NODE        497   DOF  6
   INSTANCE: BEAM                                                                            
 LARGEST INCREMENT OF ROTATION     -3.036E-06   AT NODE         82   DOF  6
   INSTANCE: BEAM                                                                            
 LARGEST CORRECTION TO ROTATION     1.980E-05   AT NODE        497   DOF  6
   INSTANCE: BEAM                                                                            
          THE MOMENT    EQUILIBRIUM RESPONSE WAS LINEAR IN THIS INCREMENT

  MAXIMUM HALF-INCREMENT FORCE RESIDUAL IS    13.0     AND OCCURS AT NODE        501 INSTANCE BEAM                                                                            
  MAXIMUM HALF-INCREMENT MOMENT RESIDUAL IS   -13.8     AND OCCURS AT NODE        499 INSTANCE BEAM                                                                            

 ITERATION SUMMARY FOR THE INCREMENT:   1 TOTAL ITERATIONS, OF WHICH
   0 ARE SEVERE DISCONTINUITY ITERATIONS AND  1 ARE EQUILIBRIUM ITERATIONS.

 TIME INCREMENT COMPLETED  5.551E-05,  FRACTION OF STEP COMPLETED  5.531E-02
 STEP TIME COMPLETED       5.531E-04,  TOTAL TIME COMPLETED        5.531E-04


  INCREMENT    27 STARTS. ATTEMPT NUMBER  1, TIME INCREMENT  5.551E-05

  NUMBER OF EQUATIONS =      3006     NUMBER OF RHS =    1
  NUMBER OF FLOATING PT. OPERATIONS =  8.47E+05

     CHECK POINT   START OF SOLVER    

     CHECK POINT  END OF SOLVER       

       ELAPSED USER TIME (SEC)      =   0.0000    
       ELAPSED SYSTEM TIME (SEC)    =   0.0000    
       ELAPSED TOTAL CPU TIME (SEC) =   0.0000    
       ELAPSED WALLCLOCK TIME (SEC) =          0

               CONVERGENCE CHECKS FOR EQUILIBRIUM ITERATION     1


 AVERAGE FORCE                      7.198E-03   TIME AVG. FORCE       1.800E-02
 LARGEST RESIDUAL FORCE             6.533E-15   AT NODE        500   DOF  2
   INSTANCE: BEAM                                                                            
 LARGEST INCREMENT OF DISP.        -4.343E-05   AT NODE        426   DOF  2
   INSTANCE: BEAM                                                                            
 LARGEST CORRECTION TO DISP.        9.087E-05   AT NODE        500   DOF  2
   INSTANCE: BEAM                                                                            
          THE FORCE     EQUILIBRIUM RESPONSE WAS LINEAR IN THIS INCREMENT

 AVERAGE MOMENT                     6.442E-02   TIME AVG. MOMENT      7.385E-02
 LARGEST RESIDUAL MOMENT           -1.357E-14   AT NODE        497   DOF  6
   INSTANCE: BEAM                                                                            
 LARGEST INCREMENT OF ROTATION     -3.131E-06   AT NODE        419   DOF  6
   INSTANCE: BEAM                                                                            
 LARGEST CORRECTION TO ROTATION    -1.866E-05   AT NODE        497   DOF  6
   INSTANCE: BEAM                                                                            
          THE MOMENT    EQUILIBRIUM RESPONSE WAS LINEAR IN THIS INCREMENT

  MAXIMUM HALF-INCREMENT FORCE RESIDUAL IS   -11.7     AND OCCURS AT NODE        501 INSTANCE BEAM                                                                            
  MAXIMUM HALF-INCREMENT MOMENT RESIDUAL IS    13.9     AND OCCURS AT NODE        499 INSTANCE BEAM                                                                            

 ITERATION SUMMARY FOR THE INCREMENT:   1 TOTAL ITERATIONS, OF WHICH
   0 ARE SEVERE DISCONTINUITY ITERATIONS AND  1 ARE EQUILIBRIUM ITERATIONS.

 TIME INCREMENT COMPLETED  5.551E-05,  FRACTION OF STEP COMPLETED  6.086E-02
 STEP TIME COMPLETED       6.086E-04,  TOTAL TIME COMPLETED        6.086E-04


  INCREMENT    28 STARTS. ATTEMPT NUMBER  1, TIME INCREMENT  5.551E-05

  NUMBER OF EQUATIONS =      3006     NUMBER OF RHS =    1
  NUMBER OF FLOATING PT. OPERATIONS =  8.47E+05

     CHECK POINT   START OF SOLVER    

     CHECK POINT  END OF SOLVER       

       ELAPSED USER TIME (SEC)      =   0.0000    
       ELAPSED SYSTEM TIME (SEC)    =   0.0000    
       ELAPSED TOTAL CPU TIME (SEC) =   0.0000    
       ELAPSED WALLCLOCK TIME (SEC) =          0

               CONVERGENCE CHECKS FOR EQUILIBRIUM ITERATION     1


 AVERAGE FORCE                      6.747E-03   TIME AVG. FORCE       1.760E-02
 LARGEST RESIDUAL FORCE            -1.625E-14   AT NODE        501   DOF  2
   INSTANCE: BEAM                                                                            
 LARGEST INCREMENT OF DISP.         4.122E-05   AT NODE         77   DOF  2
   INSTANCE: BEAM                                                                            
 LARGEST CORRECTION TO DISP.       -8.153E-05   AT NODE        500   DOF  2
   INSTANCE: BEAM                                                                            
          THE FORCE     EQUILIBRIUM RESPONSE WAS LINEAR IN THIS INCREMENT

 AVERAGE MOMENT                     6.331E-02   TIME AVG. MOMENT      7.347E-02
 LARGEST RESIDUAL MOMENT            1.682E-14   AT NODE        497   DOF  6
   INSTANCE: BEAM                                                                            
 LARGEST INCREMENT OF ROTATION     -2.770E-06   AT NODE         79   DOF  6
   INSTANCE: BEAM                                                                            
 LARGEST CORRECTION TO ROTATION     1.709E-05   AT NODE        497   DOF  6
   INSTANCE: BEAM                                                                            
          THE MOMENT    EQUILIBRIUM RESPONSE WAS LINEAR IN THIS INCREMENT

  MAXIMUM HALF-INCREMENT FORCE RESIDUAL IS    10.5     AND OCCURS AT NODE        501 INSTANCE BEAM                                                                            
  MAXIMUM HALF-INCREMENT MOMENT RESIDUAL IS   -13.7     AND OCCURS AT NODE        499 INSTANCE BEAM                                                                            
          TIME INCREMENT MAY NOW INCREASE TO    6.649E-05

 ITERATION SUMMARY FOR THE INCREMENT:   1 TOTAL ITERATIONS, OF WHICH
   0 ARE SEVERE DISCONTINUITY ITERATIONS AND  1 ARE EQUILIBRIUM ITERATIONS.

 TIME INCREMENT COMPLETED  5.551E-05,  FRACTION OF STEP COMPLETED  6.641E-02
 STEP TIME COMPLETED       6.641E-04,  TOTAL TIME COMPLETED        6.641E-04


  INCREMENT    29 STARTS. ATTEMPT NUMBER  1, TIME INCREMENT  6.649E-05

  NUMBER OF EQUATIONS =      3006     NUMBER OF RHS =    1
  NUMBER OF FLOATING PT. OPERATIONS =  8.47E+05

     CHECK POINT   START OF SOLVER    

     CHECK POINT  END OF SOLVER       

       ELAPSED USER TIME (SEC)      =   0.0000    
       ELAPSED SYSTEM TIME (SEC)    =   0.0000    
       ELAPSED TOTAL CPU TIME (SEC) =   0.0000    
       ELAPSED WALLCLOCK TIME (SEC) =          0

[...]
   INSTANCE: BEAM                                                                            
 LARGEST INCREMENT OF ROTATION     -9.496E-07   AT NODE        166   DOF  6
   INSTANCE: BEAM                                                                            
 LARGEST CORRECTION TO ROTATION     3.852E-07   AT NODE        172   DOF  6
   INSTANCE: BEAM                                                                            
          THE MOMENT    EQUILIBRIUM RESPONSE WAS LINEAR IN THIS INCREMENT

  MAXIMUM HALF-INCREMENT FORCE RESIDUAL IS  -3.113E-03 AND OCCURS AT NODE        498 INSTANCE BEAM                                                                            
  MAXIMUM HALF-INCREMENT MOMENT RESIDUAL IS  -5.037E-03 AND OCCURS AT NODE        500 INSTANCE BEAM                                                                            

 ITERATION SUMMARY FOR THE INCREMENT:   1 TOTAL ITERATIONS, OF WHICH
   0 ARE SEVERE DISCONTINUITY ITERATIONS AND  1 ARE EQUILIBRIUM ITERATIONS.

 TIME INCREMENT COMPLETED  1.000E-04,  FRACTION OF STEP COMPLETED  0.936    
 STEP TIME COMPLETED       9.363E-03,  TOTAL TIME COMPLETED        9.363E-03


  INCREMENT   118 STARTS. ATTEMPT NUMBER  1, TIME INCREMENT  1.000E-04

  NUMBER OF EQUATIONS =      3006     NUMBER OF RHS =    1
  NUMBER OF FLOATING PT. OPERATIONS =  8.47E+05

     CHECK POINT   START OF SOLVER    

     CHECK POINT  END OF SOLVER       

       ELAPSED USER TIME (SEC)      =   0.0000    
       ELAPSED SYSTEM TIME (SEC)    =   0.0000    
       ELAPSED TOTAL CPU TIME (SEC) =   0.0000    
       ELAPSED WALLCLOCK TIME (SEC) =          0

               CONVERGENCE CHECKS FOR EQUILIBRIUM ITERATION     1


 AVERAGE FORCE                      1.062E-03   TIME AVG. FORCE       5.414E-03
 LARGEST RESIDUAL FORCE            -5.070E-14   AT NODE        490   DOF  2
   INSTANCE: BEAM                                                                            
 LARGEST INCREMENT OF DISP.        -3.758E-05   AT NODE        175   DOF  2
   INSTANCE: BEAM                                                                            
 LARGEST CORRECTION TO DISP.        1.217E-05   AT NODE        124   DOF  2
   INSTANCE: BEAM                                                                            
          THE FORCE     EQUILIBRIUM RESPONSE WAS LINEAR IN THIS INCREMENT

 AVERAGE MOMENT                     4.027E-02   TIME AVG. MOMENT      4.756E-02
 LARGEST RESIDUAL MOMENT           -2.269E-14   AT NODE        499   DOF  6
   INSTANCE: BEAM                                                                            
 LARGEST INCREMENT OF ROTATION      1.172E-06   AT NODE        136   DOF  6
   INSTANCE: BEAM                                                                            
 LARGEST CORRECTION TO ROTATION    -5.423E-07   AT NODE        137   DOF  6
   INSTANCE: BEAM                                                                            
          THE MOMENT    EQUILIBRIUM RESPONSE WAS LINEAR IN THIS INCREMENT

  MAXIMUM HALF-INCREMENT FORCE RESIDUAL IS   2.819E-03 AND OCCURS AT NODE        498 INSTANCE BEAM                                                                            
  MAXIMUM HALF-INCREMENT MOMENT RESIDUAL IS   4.584E-03 AND OCCURS AT NODE        500 INSTANCE BEAM                                                                            

 ITERATION SUMMARY FOR THE INCREMENT:   1 TOTAL ITERATIONS, OF WHICH
   0 ARE SEVERE DISCONTINUITY ITERATIONS AND  1 ARE EQUILIBRIUM ITERATIONS.

 TIME INCREMENT COMPLETED  1.000E-04,  FRACTION OF STEP COMPLETED  0.946    
 STEP TIME COMPLETED       9.463E-03,  TOTAL TIME COMPLETED        9.463E-03


  INCREMENT   119 STARTS. ATTEMPT NUMBER  1, TIME INCREMENT  1.000E-04

  NUMBER OF EQUATIONS =      3006     NUMBER OF RHS =    1
  NUMBER OF FLOATING PT. OPERATIONS =  8.47E+05

     CHECK POINT   START OF SOLVER    

     CHECK POINT  END OF SOLVER       

       ELAPSED USER TIME (SEC)      =   0.0000    
       ELAPSED SYSTEM TIME (SEC)    =   0.0000    
       ELAPSED TOTAL CPU TIME (SEC) =   0.0000    
       ELAPSED WALLCLOCK TIME (SEC) =          0

               CONVERGENCE CHECKS FOR EQUILIBRIUM ITERATION     1


 AVERAGE FORCE                      1.307E-03   TIME AVG. FORCE       5.379E-03
 LARGEST RESIDUAL FORCE             4.754E-14   AT NODE        498   DOF  2
   INSTANCE: BEAM                                                                            
 LARGEST INCREMENT OF DISP.        -2.974E-05   AT NODE        171   DOF  2
   INSTANCE: BEAM                                                                            
 LARGEST CORRECTION TO DISP.        1.408E-05   AT NODE          6   DOF  2
   INSTANCE: BEAM                                                                            
          THE FORCE     EQUILIBRIUM RESPONSE WAS LINEAR IN THIS INCREMENT

 AVERAGE MOMENT                     4.568E-02   TIME AVG. MOMENT      4.754E-02
 LARGEST RESIDUAL MOMENT           -3.762E-14   AT NODE        493   DOF  6
   INSTANCE: BEAM                                                                            
 LARGEST INCREMENT OF ROTATION     -6.638E-07   AT NODE        157   DOF  6
   INSTANCE: BEAM                                                                            
 LARGEST CORRECTION TO ROTATION    -6.281E-07   AT NODE        134   DOF  6
   INSTANCE: BEAM                                                                            
          THE MOMENT    EQUILIBRIUM RESPONSE WAS LINEAR IN THIS INCREMENT

  MAXIMUM HALF-INCREMENT FORCE RESIDUAL IS  -2.544E-03 AND OCCURS AT NODE        498 INSTANCE BEAM                                                                            
  MAXIMUM HALF-INCREMENT MOMENT RESIDUAL IS  -4.155E-03 AND OCCURS AT NODE        500 INSTANCE BEAM                                                                            

 ITERATION SUMMARY FOR THE INCREMENT:   1 TOTAL ITERATIONS, OF WHICH
   0 ARE SEVERE DISCONTINUITY ITERATIONS AND  1 ARE EQUILIBRIUM ITERATIONS.

 TIME INCREMENT COMPLETED  1.000E-04,  FRACTION OF STEP COMPLETED  0.956    
 STEP TIME COMPLETED       9.563E-03,  TOTAL TIME COMPLETED        9.563E-03


  INCREMENT   120 STARTS. ATTEMPT NUMBER  1, TIME INCREMENT  1.000E-04

  NUMBER OF EQUATIONS =      3006     NUMBER OF RHS =    1
  NUMBER OF FLOATING PT. OPERATIONS =  8.47E+05

     CHECK POINT   START OF SOLVER    

     CHECK POINT  END OF SOLVER       

       ELAPSED USER TIME (SEC)      =   0.0000    
       ELAPSED SYSTEM TIME (SEC)    =   0.0000    
       ELAPSED TOTAL CPU TIME (SEC) =   0.0000    
       ELAPSED WALLCLOCK TIME (SEC) =          0

               CONVERGENCE CHECKS FOR EQUILIBRIUM ITERATION     1


 AVERAGE FORCE                      1.099E-03   TIME AVG. FORCE       5.344E-03
 LARGEST RESIDUAL FORCE            -4.391E-14   AT NODE        490   DOF  2
   INSTANCE: BEAM                                                                            
 LARGEST INCREMENT OF DISP.         2.796E-05   AT NODE        101   DOF  2
   INSTANCE: BEAM                                                                            
 LARGEST CORRECTION TO DISP.        4.934E-06   AT NODE        234   DOF  2
   INSTANCE: BEAM                                                                            
          THE FORCE     EQUILIBRIUM RESPONSE WAS LINEAR IN THIS INCREMENT

 AVERAGE MOMENT                     4.254E-02   TIME AVG. MOMENT      4.750E-02
 LARGEST RESIDUAL MOMENT            4.122E-14   AT NODE        497   DOF  6
   INSTANCE: BEAM                                                                            
 LARGEST INCREMENT OF ROTATION     -8.407E-07   AT NODE         10   DOF  6
   INSTANCE: BEAM                                                                            
 LARGEST CORRECTION TO ROTATION     2.537E-07   AT NODE        224   DOF  6
   INSTANCE: BEAM                                                                            
          THE MOMENT    EQUILIBRIUM RESPONSE WAS LINEAR IN THIS INCREMENT

  MAXIMUM HALF-INCREMENT FORCE RESIDUAL IS   2.320E-03 AND OCCURS AT NODE        498 INSTANCE BEAM                                                                            
  MAXIMUM HALF-INCREMENT MOMENT RESIDUAL IS   3.803E-03 AND OCCURS AT NODE        500 INSTANCE BEAM                                                                            

 ITERATION SUMMARY FOR THE INCREMENT:   1 TOTAL ITERATIONS, OF WHICH
   0 ARE SEVERE DISCONTINUITY ITERATIONS AND  1 ARE EQUILIBRIUM ITERATIONS.

 TIME INCREMENT COMPLETED  1.000E-04,  FRACTION OF STEP COMPLETED  0.966    
 STEP TIME COMPLETED       9.663E-03,  TOTAL TIME COMPLETED        9.663E-03


  INCREMENT   121 STARTS. ATTEMPT NUMBER  1, TIME INCREMENT  1.000E-04

  NUMBER OF EQUATIONS =      3006     NUMBER OF RHS =    1
  NUMBER OF FLOATING PT. OPERATIONS =  8.47E+05

     CHECK POINT   START OF SOLVER    

     CHECK POINT  END OF SOLVER       

       ELAPSED USER TIME (SEC)      =   0.0000    
       ELAPSED SYSTEM TIME (SEC)    =   0.0000    
       ELAPSED TOTAL CPU TIME (SEC) =   0.0000    
       ELAPSED WALLCLOCK TIME (SEC) =          0

               CONVERGENCE CHECKS FOR EQUILIBRIUM ITERATION     1


 AVERAGE FORCE                      3.104E-04   TIME AVG. FORCE       5.302E-03
 LARGEST RESIDUAL FORCE             6.376E-14   AT NODE         99   DOF  2
   INSTANCE: BEAM                                                                            
 LARGEST INCREMENT OF DISP.        -3.914E-05   AT NODE        151   DOF  2
   INSTANCE: BEAM                                                                            
 LARGEST CORRECTION TO DISP.       -1.369E-05   AT NODE        122   DOF  2
   INSTANCE: BEAM                                                                            
          THE FORCE     EQUILIBRIUM RESPONSE WAS LINEAR IN THIS INCREMENT

 AVERAGE MOMENT                     3.710E-02   TIME AVG. MOMENT      4.742E-02
 LARGEST RESIDUAL MOMENT            3.726E-14   AT NODE        494   DOF  6
   INSTANCE: BEAM                                                                            
 LARGEST INCREMENT OF ROTATION     -1.613E-06   AT NODE        136   DOF  6
   INSTANCE: BEAM                                                                            
 LARGEST CORRECTION TO ROTATION     5.850E-07   AT NODE        134   DOF  6
   INSTANCE: BEAM                                                                            
          THE MOMENT    EQUILIBRIUM RESPONSE WAS LINEAR IN THIS INCREMENT

  MAXIMUM HALF-INCREMENT FORCE RESIDUAL IS  -2.107E-03 AND OCCURS AT NODE        498 INSTANCE BEAM                                                                            
  MAXIMUM HALF-INCREMENT MOMENT RESIDUAL IS  -3.494E-03 AND OCCURS AT NODE        500 INSTANCE BEAM                                                                            

 ITERATION SUMMARY FOR THE INCREMENT:   1 TOTAL ITERATIONS, OF WHICH
   0 ARE SEVERE DISCONTINUITY ITERATIONS AND  1 ARE EQUILIBRIUM ITERATIONS.

 TIME INCREMENT COMPLETED  1.000E-04,  FRACTION OF STEP COMPLETED  0.976    
 STEP TIME COMPLETED       9.763E-03,  TOTAL TIME COMPLETED        9.763E-03


  INCREMENT   122 STARTS. ATTEMPT NUMBER  1, TIME INCREMENT  1.000E-04

  NUMBER OF EQUATIONS =      3006     NUMBER OF RHS =    1
  NUMBER OF FLOATING PT. OPERATIONS =  8.47E+05

     CHECK POINT   START OF SOLVER    

     CHECK POINT  END OF SOLVER       

       ELAPSED USER TIME (SEC)      =   0.0000    
       ELAPSED SYSTEM TIME (SEC)    =   0.0000    
       ELAPSED TOTAL CPU TIME (SEC) =   0.0000    
       ELAPSED WALLCLOCK TIME (SEC) =          0

               CONVERGENCE CHECKS FOR EQUILIBRIUM ITERATION     1


 AVERAGE FORCE                      1.082E-03   TIME AVG. FORCE       5.267E-03
 LARGEST RESIDUAL FORCE             4.174E-14   AT NODE        100   DOF  2
   INSTANCE: BEAM                                                                            
 LARGEST INCREMENT OF DISP.        -3.879E-05   AT NODE        156   DOF  2
   INSTANCE: BEAM                                                                            
 LARGEST CORRECTION TO DISP.       -1.675E-05   AT NODE          6   DOF  2
   INSTANCE: BEAM                                                                            
          THE FORCE     EQUILIBRIUM RESPONSE WAS LINEAR IN THIS INCREMENT

 AVERAGE MOMENT                     3.770E-02   TIME AVG. MOMENT      4.734E-02
 LARGEST RESIDUAL MOMENT            3.502E-14   AT NODE        498   DOF  6
   INSTANCE: BEAM                                                                            
 LARGEST INCREMENT OF ROTATION     -1.240E-06   AT NODE         10   DOF  6
   INSTANCE: BEAM                                                                            
 LARGEST CORRECTION TO ROTATION     6.662E-07   AT NODE          9   DOF  6
   INSTANCE: BEAM                                                                            
          THE MOMENT    EQUILIBRIUM RESPONSE WAS LINEAR IN THIS INCREMENT

  MAXIMUM HALF-INCREMENT FORCE RESIDUAL IS   1.900E-03 AND OCCURS AT NODE        498 INSTANCE BEAM                                                                            
  MAXIMUM HALF-INCREMENT MOMENT RESIDUAL IS   3.195E-03 AND OCCURS AT NODE        500 INSTANCE BEAM                                                                            

 ITERATION SUMMARY FOR THE INCREMENT:   1 TOTAL ITERATIONS, OF WHICH
   0 ARE SEVERE DISCONTINUITY ITERATIONS AND  1 ARE EQUILIBRIUM ITERATIONS.

 TIME INCREMENT COMPLETED  1.000E-04,  FRACTION OF STEP COMPLETED  0.986    
 STEP TIME COMPLETED       9.863E-03,  TOTAL TIME COMPLETED        9.863E-03


  INCREMENT   123 STARTS. ATTEMPT NUMBER  1, TIME INCREMENT  1.000E-04

  NUMBER OF EQUATIONS =      3006     NUMBER OF RHS =    1
  NUMBER OF FLOATING PT. OPERATIONS =  8.47E+05

     CHECK POINT   START OF SOLVER    

     CHECK POINT  END OF SOLVER       

       ELAPSED USER TIME (SEC)      =   0.0000    
       ELAPSED SYSTEM TIME (SEC)    =   0.0000    
       ELAPSED TOTAL CPU TIME (SEC) =   0.0000    
       ELAPSED WALLCLOCK TIME (SEC) =          0

               CONVERGENCE CHECKS FOR EQUILIBRIUM ITERATION     1


 AVERAGE FORCE                      1.087E-03   TIME AVG. FORCE       5.233E-03
 LARGEST RESIDUAL FORCE             4.525E-14   AT NODE        499   DOF  2
   INSTANCE: BEAM                                                                            
 LARGEST INCREMENT OF DISP.         3.812E-05   AT NODE        101   DOF  2
   INSTANCE: BEAM                                                                            
 LARGEST CORRECTION TO DISP.       -8.896E-06   AT NODE        186   DOF  2
   INSTANCE: BEAM                                                                            
          THE FORCE     EQUILIBRIUM RESPONSE WAS LINEAR IN THIS INCREMENT

 AVERAGE MOMENT                     3.499E-02   TIME AVG. MOMENT      4.724E-02
 LARGEST RESIDUAL MOMENT            3.432E-14   AT NODE        489   DOF  6
   INSTANCE: BEAM                                                                            
 LARGEST INCREMENT OF ROTATION      9.492E-07   AT NODE         19   DOF  6
   INSTANCE: BEAM                                                                            
 LARGEST CORRECTION TO ROTATION     3.952E-07   AT NODE        197   DOF  6
   INSTANCE: BEAM                                                                            
          THE MOMENT    EQUILIBRIUM RESPONSE WAS LINEAR IN THIS INCREMENT

  MAXIMUM HALF-INCREMENT FORCE RESIDUAL IS  -1.814E-03 AND OCCURS AT NODE        501 INSTANCE BEAM                                                                            
  MAXIMUM HALF-INCREMENT MOMENT RESIDUAL IS  -2.900E-03 AND OCCURS AT NODE        500 INSTANCE BEAM                                                                            

 ITERATION SUMMARY FOR THE INCREMENT:   1 TOTAL ITERATIONS, OF WHICH
   0 ARE SEVERE DISCONTINUITY ITERATIONS AND  1 ARE EQUILIBRIUM ITERATIONS.

 TIME INCREMENT COMPLETED  1.000E-04,  FRACTION OF STEP COMPLETED  0.996    
 STEP TIME COMPLETED       9.963E-03,  TOTAL TIME COMPLETED        9.963E-03


  INCREMENT   124 STARTS. ATTEMPT NUMBER  1, TIME INCREMENT  3.741E-05

  NUMBER OF EQUATIONS =      3006     NUMBER OF RHS =    1
  NUMBER OF FLOATING PT. OPERATIONS =  8.47E+05

     CHECK POINT   START OF SOLVER    

     CHECK POINT  END OF SOLVER       

       ELAPSED USER TIME (SEC)      =   0.0000    
       ELAPSED SYSTEM TIME (SEC)    =   0.0000    
       ELAPSED TOTAL CPU TIME (SEC) =   0.0000    
       ELAPSED WALLCLOCK TIME (SEC) =          0

               CONVERGENCE CHECKS FOR EQUILIBRIUM ITERATION     1


 AVERAGE FORCE                      1.055E-03   TIME AVG. FORCE       5.200E-03
 LARGEST RESIDUAL FORCE            -3.749E-14   AT NODE        485   DOF  2
   INSTANCE: BEAM                                                                            
 LARGEST INCREMENT OF DISP.         1.413E-05   AT NODE        101   DOF  2
   INSTANCE: BEAM                                                                            
 LARGEST CORRECTION TO DISP.        1.071E-06   AT NODE        162   DOF  2
   INSTANCE: BEAM                                                                            
          THE FORCE     EQUILIBRIUM RESPONSE WAS LINEAR IN THIS INCREMENT

 AVERAGE MOMENT                     3.458E-02   TIME AVG. MOMENT      4.713E-02
 LARGEST RESIDUAL MOMENT           -5.155E-14   AT NODE         97   DOF  6
   INSTANCE: BEAM                                                                            
 LARGEST INCREMENT OF ROTATION      3.228E-07   AT NODE        233   DOF  6
   INSTANCE: BEAM                                                                            
 LARGEST CORRECTION TO ROTATION     5.437E-08   AT NODE        151   DOF  6
   INSTANCE: BEAM                                                                            
          THE MOMENT    EQUILIBRIUM RESPONSE WAS LINEAR IN THIS INCREMENT

  MAXIMUM HALF-INCREMENT FORCE RESIDUAL IS   3.069E-04 AND OCCURS AT NODE        501 INSTANCE BEAM                                                                            
  MAXIMUM HALF-INCREMENT MOMENT RESIDUAL IS   4.406E-04 AND OCCURS AT NODE        500 INSTANCE BEAM                                                                            

 ITERATION SUMMARY FOR THE INCREMENT:   1 TOTAL ITERATIONS, OF WHICH
   0 ARE SEVERE DISCONTINUITY ITERATIONS AND  1 ARE EQUILIBRIUM ITERATIONS.

 TIME INCREMENT COMPLETED  3.741E-05,  FRACTION OF STEP COMPLETED   1.00    
 STEP TIME COMPLETED       1.000E-02,  TOTAL TIME COMPLETED        1.000E-02


          THE ANALYSIS HAS BEEN COMPLETED



     ANALYSIS SUMMARY:
     TOTAL OF        124  INCREMENTS
                       0  CUTBACKS IN AUTOMATIC INCREMENTATION
                     124  ITERATIONS INCLUDING CONTACT ITERATIONS IF PRESENT
                     126  PASSES THROUGH THE EQUATION SOLVER OF WHICH 
                      26  INVOLVE MATRIX DECOMPOSITION, INCLUDING
                       2  DECOMPOSITION(S) OF THE MASS MATRIX
                       1  REORDERING OF EQUATIONS TO MINIMIZE WAVEFRONT
                       0  ADDITIONAL RESIDUAL EVALUATIONS FOR LINE SEARCHES
                       0  ADDITIONAL OPERATOR EVALUATIONS FOR LINE SEARCHES
                       0  WARNING MESSAGES DURING USER INPUT PROCESSING
                       0  WARNING MESSAGES DURING ANALYSIS
                       0  ANALYSIS WARNINGS ARE NUMERICAL PROBLEM MESSAGES
                       0  ANALYSIS WARNINGS ARE NEGATIVE EIGENVALUE MESSAGES
                       0  ERROR MESSAGES



     JOB TIME SUMMARY
       USER TIME (SEC)      =   3.9000    
       SYSTEM TIME (SEC)    =  0.30000    
       TOTAL CPU TIME (SEC) =   4.2000    
       WALLCLOCK TIME (SEC) =          7
