*Heading
** Job name: Beam Model name: Model-1
** Generated by: Abaqus/CAE 2020
*Preprint, echo=NO, model=NO, history=NO, contact=NO
**
** PARTS
**
*Part, name=Beam
*End Part
**  
**
** ASSEMBLY
**
*Assembly, name=Assembly
**  
*Instance, name=Beam, part=Beam
*Node
      1,           0.,           0.,           0.
      2,          10.,           0.,           0.
      3,          20.,           0.,           0.
      4,          30.,           0.,           0.
      5,          40.,           0.,           0.
      6,          50.,           0.,           0.
      7,          60.,           0.,           0.
      8,          70.,           0.,           0.
      9,          80.,           0.,           0.
     10,          90.,           0.,           0.
     11,         100.,           0.,           0.
     12,         110.,           0.,           0.
     13,         120.,           0.,           0.
     14,         130.,           0.,           0.
     15,         140.,           0.,           0.
     16,         150.,           0.,           0.
     17,         160.,           0.,           0.
     18,         170.,           0.,           0.
     19,         180.,           0.,           0.
     20,         190.,           0.,           0.
** ... 481 like lines cut
*Element, type=B31
1,   1, 102
2, 102, 103
3, 103, 104
4, 104, 105
5, 105,   2
 6,   2, 106
 7, 106, 107
 8, 107, 108
 9, 108, 109
10, 109,   3
11,   3, 110
12, 110, 111
13, 111, 112
14, 112, 113
15, 113,   4
16,   4, 114
17, 114, 115
18, 115, 116
19, 116, 117
20, 117,   5
** ... 480 like lines cut
*Nset, nset=set-0
   1,   2, 102, 103, 104, 105
*Elset, elset=set-0, generate
 1,  5,  1
*Nset, nset=set-1
   2,   3, 106, 107, 108, 109
*Elset, elset=set-1, generate
  6,  10,   1
*Nset, nset=set-2
   3,   4, 110, 111, 112, 113
*Elset, elset=set-2, generate
 11,  15,   1
*Nset, nset=set-3
   4,   5, 114, 115, 116, 117
*Elset, elset=set-3, generate
 16,  20,   1
*Nset, nset=set-4
   5,   6, 118, 119, 120, 121
*Elset, elset=set-4, generate
 21,  25,   1
*Nset, nset=set-5
   6,   7, 122, 123, 124, 125
*Elset, elset=set-5, generate
 26,  30,   1
*Nset, nset=set-6
   7,   8, 126, 127, 128, 129
*Elset, elset=set-6, generate
 31,  35,   1
*Nset, nset=set-7
   8,   9, 130, 131, 132, 133
*Elset, elset=set-7, generate
 36,  40,   1
*Nset, nset=set-8
   9,  10, 134, 135, 136, 137
*Elset, elset=set-8, generate
 41,  45,   1
*Nset, nset=set-9
  10,  11, 138, 139, 140, 141
*Elset, elset=set-9, generate
 46,  50,   1
*Nset, nset=set-10
  11,  12, 142, 143, 144, 145
*Elset, elset=set-10, generate
 51,  55,   1
*Nset, nset=set-11
  12,  13, 146, 147, 148, 149
*Elset, elset=set-11, generate
 56,  60,   1
*Nset, nset=set-12
  13,  14, 150, 151, 152, 153
*Elset, elset=set-12, generate
 61,  65,   1
*Nset, nset=set-13
  14,  15, 154, 155, 156, 157
*Elset, elset=set-13, generate
 66,  70,   1
*Nset, nset=set-14
  15,  16, 158, 159, 160, 161
*Elset, elset=set-14, generate
 71,  75,   1
*Nset, nset=set-15
  16,  17, 162, 163, 164, 165
*Elset, elset=set-15, generate
 76,  80,   1
*Nset, nset=set-16
  17,  18, 166, 167, 168, 169
*Elset, elset=set-16, generate
 81,  85,   1
*Nset, nset=set-17
  18,  19, 170, 171, 172, 173
*Elset, elset=set-17, generate
 86,  90,   1
*Nset, nset=set-18
  19,  20, 174, 175, 176, 177
*Elset, elset=set-18, generate
 91,  95,   1
*Nset, nset=set-19
  20,  21, 178, 179, 180, 181
*Elset, elset=set-19, generate
  96,  100,    1
*Nset, nset=set-20
  21,  22, 182, 183, 184, 185
*Elset, elset=set-20, generate
 101,  105,    1
*Nset, nset=set-21
  22,  23, 186, 187, 188, 189
*Elset, elset=set-21, generate
 106,  110,    1
*Nset, nset=set-22
  23,  24, 190, 191, 192, 193
*Elset, elset=set-22, generate
 111,  115,    1
*Nset, nset=set-23
  24,  25, 194, 195, 196, 197
*Elset, elset=set-23, generate
 116,  120,    1
*Nset, nset=set-24
  25,  26, 198, 199, 200, 201
*Elset, elset=set-24, generate
 121,  125,    1
*Nset, nset=set-25
  26,  27, 202, 203, 204, 205
*Elset, elset=set-25, generate
 126,  130,    1
*Nset, nset=set-26
  27,  28, 206, 207, 208, 209
*Elset, elset=set-26, generate
 131,  135,    1
*Nset, nset=set-27
  28,  29, 210, 211, 212, 213
*Elset, elset=set-27, generate
 136,  140,    1
*Nset, nset=set-28
  29,  30, 214, 215, 216, 217
*Elset, elset=set-28, generate
 141,  145,    1
*Nset, nset=set-29
  30,  31, 218, 219, 220, 221
*Elset, elset=set-29, generate
 146,  150,    1
*Nset, nset=set-30
  31,  32, 222, 223, 224, 225
*Elset, elset=set-30, generate
 151,  155,    1
*Nset, nset=set-31
  32,  33, 226, 227, 228, 229
*Elset, elset=set-31, generate
 156,  160,    1
*Nset, nset=set-32
  33,  34, 230, 231, 232, 233
*Elset, elset=set-32, generate
 161,  165,    1
*Nset, nset=set-33
  34,  35, 234, 235, 236, 237
*Elset, elset=set-33, generate
 166,  170,    1
*Nset, nset=set-34
  35,  36, 238, 239, 240, 241
*Elset, elset=set-34, generate
 171,  175,    1
*Nset, nset=set-35
  36,  37, 242, 243, 244, 245
*Elset, elset=set-35, generate
 176,  180,    1
*Nset, nset=set-36
  37,  38, 246, 247, 248, 249
*Elset, elset=set-36, generate
 181,  185,    1
*Nset, nset=set-37
  38,  39, 250, 251, 252, 253
*Elset, elset=set-37, generate
 186,  190,    1
*Nset, nset=set-38
  39,  40, 254, 255, 256, 257
*Elset, elset=set-38, generate
 191,  195,    1
*Nset, nset=set-39
  40,  41, 258, 259, 260, 261
*Elset, elset=set-39, generate
 196,  200,    1
*Nset, nset=set-40
  41,  42, 262, 263, 264, 265
*Elset, elset=set-40, generate
 201,  205,    1
*Nset, nset=set-41
  42,  43, 266, 267, 268, 269
*Elset, elset=set-41, generate
 206,  210,    1
*Nset, nset=set-42
  43,  44, 270, 271, 272, 273
*Elset, elset=set-42, generate
 211,  215,    1
*Nset, nset=set-43
  44,  45, 274, 275, 276, 277
*Elset, elset=set-43, generate
 216,  220,    1
*Nset, nset=set-44
  45,  46, 278, 279, 280, 281
*Elset, elset=set-44, generate
 221,  225,    1
*Nset, nset=set-45
  46,  47, 282, 283, 284, 285
*Elset, elset=set-45, generate
 226,  230,    1
*Nset, nset=set-46
  47,  48, 286, 287, 288, 289
*Elset, elset=set-46, generate
 231,  235,    1
*Nset, nset=set-47
  48,  49, 290, 291, 292, 293
*Elset, elset=set-47, generate
 236,  240,    1
*Nset, nset=set-48
  49,  50, 294, 295, 296, 297
*Elset, elset=set-48, generate
 241,  245,    1
*Nset, nset=set-49
  50,  51, 298, 299, 300, 301
*Elset, elset=set-49, generate
 246,  250,    1
*Nset, nset=set-50
  51,  52, 302, 303, 304, 305
*Elset, elset=set-50, generate
 251,  255,    1
*Nset, nset=set-51
  52,  53, 306, 307, 308, 309
*Elset, elset=set-51, generate
 256,  260,    1
*Nset, nset=set-52
  53,  54, 310, 311, 312, 313
*Elset, elset=set-52, generate
 261,  265,    1
*Nset, nset=set-53
  54,  55, 314, 315, 316, 317
*Elset, elset=set-53, generate
 266,  270,    1
*Nset, nset=set-54
  55,  56, 318, 319, 320, 321
*Elset, elset=set-54, generate
 271,  275,    1
*Nset, nset=set-55
  56,  57, 322, 323, 324, 325
*Elset, elset=set-55, generate
 276,  280,    1
*Nset, nset=set-56
  57,  58, 326, 327, 328, 329
*Elset, elset=set-56, generate
 281,  285,    1
*Nset, nset=set-57
  58,  59, 330, 331, 332, 333
*Elset, elset=set-57, generate
 286,  290,    1
*Nset, nset=set-58
  59,  60, 334, 335, 336, 337
*Elset, elset=set-58, generate
 291,  295,    1
*Nset, nset=set-59
  60,  61, 338, 339, 340, 341
*Elset, elset=set-59, generate
 296,  300,    1
*Nset, nset=set-60
  61,  62, 342, 343, 344, 345
*Elset, elset=set-60, generate
 301,  305,    1
*Nset, nset=set-61
  62,  63, 346, 347, 348, 349
*Elset, elset=set-61, generate
 306,  310,    1
*Nset, nset=set-62
  63,  64, 350, 351, 352, 353
*Elset, elset=set-62, generate
 311,  315,    1
*Nset, nset=set-63
  64,  65, 354, 355, 356, 357
*Elset, elset=set-63, generate
 316,  320,    1
*Nset, nset=set-64
  65,  66, 358, 359, 360, 361
*Elset, elset=set-64, generate
 321,  325,    1
*Nset, nset=set-65
  66,  67, 362, 363, 364, 365
*Elset, elset=set-65, generate
 326,  330,    1
*Nset, nset=set-66
  67,  68, 366, 367, 368, 369
*Elset, elset=set-66, generate
 331,  335,    1
*Nset, nset=set-67
  68,  69, 370, 371, 372, 373
*Elset, elset=set-67, generate
 336,  340,    1
*Nset, nset=set-68
  69,  70, 374, 375, 376, 377
*Elset, elset=set-68, generate
 341,  345,    1
*Nset, nset=set-69
  70,  71, 378, 379, 380, 381
*Elset, elset=set-69, generate
 346,  350,    1
*Nset, nset=set-70
  71,  72, 382, 383, 384, 385
*Elset, elset=set-70, generate
 351,  355,    1
*Nset, nset=set-71
  72,  73, 386, 387, 388, 389
*Elset, elset=set-71, generate
 356,  360,    1
*Nset, nset=set-72
  73,  74, 390, 391, 392, 393
*Elset, elset=set-72, generate
 361,  365,    1
*Nset, nset=set-73
  74,  75, 394, 395, 396, 397
*Elset, elset=set-73, generate
 366,  370,    1
*Nset, nset=set-74
  75,  76, 398, 399, 400, 401
*Elset, elset=set-74, generate
 371,  375,    1
*Nset, nset=set-75
  76,  77, 402, 403, 404, 405
*Elset, elset=set-75, generate
 376,  380,    1
*Nset, nset=set-76
  77,  78, 406, 407, 408, 409
*Elset, elset=set-76, generate
 381,  385,    1
*Nset, nset=set-77
  78,  79, 410, 411, 412, 413
*Elset, elset=set-77, generate
 386,  390,    1
*Nset, nset=set-78
  79,  80, 414, 415, 416, 417
*Elset, elset=set-78, generate
 391,  395,    1
*Nset, nset=set-79
  80,  81, 418, 419, 420, 421
*Elset, elset=set-79, generate
 396,  400,    1
*Nset, nset=set-80
  81,  82, 422, 423, 424, 425
*Elset, elset=set-80, generate
 401,  405,    1
*Nset, nset=set-81
  82,  83, 426, 427, 428, 429
*Elset, elset=set-81, generate
 406,  410,    1
*Nset, nset=set-82
  83,  84, 430, 431, 432, 433
*Elset, elset=set-82, generate
 411,  415,    1
*Nset, nset=set-83
  84,  85, 434, 435, 436, 437
*Elset, elset=set-83, generate
 416,  420,    1
*Nset, nset=set-84
  85,  86, 438, 439, 440, 441
*Elset, elset=set-84, generate
 421,  425,    1
*Nset, nset=set-85
  86,  87, 442, 443, 444, 445
*Elset, elset=set-85, generate
 426,  430,    1
*Nset, nset=set-86
  87,  88, 446, 447, 448, 449
*Elset, elset=set-86, generate
 431,  435,    1
*Nset, nset=set-87
  88,  89, 450, 451, 452, 453
*Elset, elset=set-87, generate
 436,  440,    1
*Nset, nset=set-88
  89,  90, 454, 455, 456, 457
*Elset, elset=set-88, generate
 441,  445,    1
*Nset, nset=set-89
  90,  91, 458, 459, 460, 461
*Elset, elset=set-89, generate
 446,  450,    1
*Nset, nset=set-90
  91,  92, 462, 463, 464, 465
*Elset, elset=set-90, generate
 451,  455,    1
*Nset, nset=set-91
  92,  93, 466, 467, 468, 469
*Elset, elset=set-91, generate
 456,  460,    1
*Nset, nset=set-92
  93,  94, 470, 471, 472, 473
*Elset, elset=set-92, generate
 461,  465,    1
*Nset, nset=set-93
  94,  95, 474, 475, 476, 477
*Elset, elset=set-93, generate
 466,  470,    1
*Nset, nset=set-94
  95,  96, 478, 479, 480, 481
*Elset, elset=set-94, generate
 471,  475,    1
*Nset, nset=set-95
  96,  97, 482, 483, 484, 485
*Elset, elset=set-95, generate
 476,  480,    1
*Nset, nset=set-96
  97,  98, 486, 487, 488, 489
*Elset, elset=set-96, generate
 481,  485,    1
*Nset, nset=set-97
  98,  99, 490, 491, 492, 493
*Elset, elset=set-97, generate
 486,  490,    1
*Nset, nset=set-98
  99, 100, 494, 495, 496, 497
*Elset, elset=set-98, generate
 491,  495,    1
*Nset, nset=set-99
 100, 101, 498, 499, 500, 501
*Elset, elset=set-99, generate
 496,  500,    1
** Section: PLA_section  Profile: square
*Beam Section, elset=set-0, material=PLA, temperature=GRADIENTS, section=RECT
10., 10.
0.,0.,-1.
** Section: PET_section  Profile: square
*Beam Section, elset=set-1, material=PET, temperature=GRADIENTS, section=RECT
10., 10.
0.,0.,-1.
** Section: PLA_section  Profile: square
*Beam Section, elset=set-2, material=PLA, temperature=GRADIENTS, section=RECT
10., 10.
0.,0.,-1.
** Section: PET_section  Profile: square
*Beam Section, elset=set-3, material=PET, temperature=GRADIENTS, section=RECT
10., 10.
0.,0.,-1.
** Section: PLA_section  Profile: square
*Beam Section, elset=set-4, material=PLA, temperature=GRADIENTS, section=RECT
10., 10.
0.,0.,-1.
** Section: PET_section  Profile: square
*Beam Section, elset=set-5, material=PET, temperature=GRADIENTS, section=RECT
10., 10.
0.,0.,-1.
** Section: PLA_section  Profile: square
*Beam Section, elset=set-6, material=PLA, temperature=GRADIENTS, section=RECT
10., 10.
0.,0.,-1.
** Section: PET_section  Profile: square
*Beam Section, elset=set-7, material=PET, temperature=GRADIENTS, section=RECT
10., 10.
0.,0.,-1.
** Section: PET_section  Profile: square
*Beam Section, elset=set-8, material=PET, temperature=GRADIENTS, section=RECT
10., 10.
0.,0.,-1.
** Section: PET_section  Profile: square
*Beam Section, elset=set-9, material=PET, temperature=GRADIENTS, section=RECT
10., 10.
0.,0.,-1.
** Section: ABS_section  Profile: square
*Beam Section, elset=set-10, material=ABS, temperature=GRADIENTS, section=RECT
10., 10.
0.,0.,-1.
** Section: PET_section  Profile: square
*Beam Section, elset=set-11, material=PET, temperature=GRADIENTS, section=RECT
10., 10.
0.,0.,-1.
** Section: ABS_section  Profile: square
*Beam Section, elset=set-12, material=ABS, temperature=GRADIENTS, section=RECT
10., 10.
0.,0.,-1.
** Section: PET_section  Profile: square
*Beam Section, elset=set-13, material=PET, temperature=GRADIENTS, section=RECT
10., 10.
0.,0.,-1.
** Section: PLA_section  Profile: square
*Beam Section, elset=set-14, material=PLA, temperature=GRADIENTS, section=RECT
10., 10.
0.,0.,-1.
** Section: PET_section  Profile: square
*Beam Section, elset=set-15, material=PET, temperature=GRADIENTS, section=RECT
10., 10.
0.,0.,-1.
** Section: PET_section  Profile: square
*Beam Section, elset=set-16, material=PET, temperature=GRADIENTS, section=RECT
10., 10.
0.,0.,-1.
** Section: PET_section  Profile: square
*Beam Section, elset=set-17, material=PET, temperature=GRADIENTS, section=RECT
10., 10.
0.,0.,-1.
** Section: PLA_section  Profile: square
*Beam Section, elset=set-18, material=PLA, temperature=GRADIENTS, section=RECT
10., 10.
0.,0.,-1.
** Section: PET_section  Profile: square
*Beam Section, elset=set-19, material=PET, temperature=GRADIENTS, section=RECT
10., 10.
0.,0.,-1.
** Section: ABS_section  Profile: square
*Beam Section, elset=set-20, material=ABS, temperature=GRADIENTS, section=RECT
10., 10.
0.,0.,-1.
** Section: ABS_section  Profile: square
*Beam Section, elset=set-21, material=ABS, temperature=GRADIENTS, section=RECT
10., 10.
0.,0.,-1.
** Section: PLA_section  Profile: square
*Beam Section, elset=set-22, material=PLA, temperature=GRADIENTS, section=RECT
10., 10.
0.,0.,-1.
** Section: PET_section  Profile: square
*Beam Section, elset=set-23, material=PET, temperature=GRADIENTS, section=RECT
10., 10.
0.,0.,-1.
** Section: PLA_section  Profile: square
*Beam Section, elset=set-24, material=PLA, temperature=GRADIENTS, section=RECT
10., 10.
0.,0.,-1.
** Section: ABS_section  Profile: square
*Beam Section, elset=set-25, material=ABS, temperature=GRADIENTS, section=RECT
10., 10.
0.,0.,-1.
** Section: ABS_section  Profile: square
*Beam Section, elset=set-26, material=ABS, temperature=GRADIENTS, section=RECT
10., 10.
0.,0.,-1.
** Section: PLA_section  Profile: square
*Beam Section, elset=set-27, material=PLA, temperature=GRADIENTS, section=RECT
10., 10.
0.,0.,-1.
** Section: PLA_section  Profile: square
*Beam Section, elset=set-28, material=PLA, temperature=GRADIENTS, section=RECT
10., 10.
0.,0.,-1.
** Section: PET_section  Profile: square
*Beam Section, elset=set-29, material=PET, temperature=GRADIENTS, section=RECT
10., 10.
0.,0.,-1.
** Section: ABS_section  Profile: square
*Beam Section, elset=set-30, material=ABS, temperature=GRADIENTS, section=RECT
10., 10.
0.,0.,-1.
** Section: PET_section  Profile: square
*Beam Section, elset=set-31, material=PET, temperature=GRADIENTS, section=RECT
10., 10.
0.,0.,-1.
** Section: PLA_section  Profile: square
*Beam Section, elset=set-32, material=PLA, temperature=GRADIENTS, section=RECT
10., 10.
0.,0.,-1.
** Section: PLA_section  Profile: square
*Beam Section, elset=set-33, material=PLA, temperature=GRADIENTS, section=RECT
10., 10.
0.,0.,-1.
** Section: PLA_section  Profile: square
*Beam Section, elset=set-34, material=PLA, temperature=GRADIENTS, section=RECT
10., 10.
0.,0.,-1.
** Section: PLA_section  Profile: square
*Beam Section, elset=set-35, material=PLA, temperature=GRADIENTS, section=RECT
10., 10.
0.,0.,-1.
** Section: PLA_section  Profile: square
*Beam Section, elset=set-36, material=PLA, temperature=GRADIENTS, section=RECT
10., 10.
0.,0.,-1.
** Section: PET_section  Profile: square
*Beam Section, elset=set-37, material=PET, temperature=GRADIENTS, section=RECT
10., 10.
0.,0.,-1.
** Section: PET_section  Profile: square
*Beam Section, elset=set-38, material=PET, temperature=GRADIENTS, section=RECT
10., 10.
0.,0.,-1.
** Section: PLA_section  Profile: square
*Beam Section, elset=set-39, material=PLA, temperature=GRADIENTS, section=RECT
10., 10.
0.,0.,-1.
** Section: PLA_section  Profile: square
*Beam Section, elset=set-40, material=PLA, temperature=GRADIENTS, section=RECT
10., 10.
0.,0.,-1.
** Section: PLA_section  Profile: square
*Beam Section, elset=set-41, material=PLA, temperature=GRADIENTS, section=RECT
10., 10.
0.,0.,-1.
** Section: ABS_section  Profile: square
*Beam Section, elset=set-42, material=ABS, temperature=GRADIENTS, section=RECT
10., 10.
0.,0.,-1.
** Section: PLA_section  Profile: square
*Beam Section, elset=set-43, material=PLA, temperature=GRADIENTS, section=RECT
10., 10.
0.,0.,-1.
** Section: PET_section  Profile: square
*Beam Section, elset=set-44, material=PET, temperature=GRADIENTS, section=RECT
10., 10.
0.,0.,-1.
** Section: ABS_section  Profile: square
*Beam Section, elset=set-45, material=ABS, temperature=GRADIENTS, section=RECT
10., 10.
0.,0.,-1.
** Section: PET_section  Profile: square
*Beam Section, elset=set-46, material=PET, temperature=GRADIENTS, section=RECT
10., 10.
0.,0.,-1.
** Section: ABS_section  Profile: square
*Beam Section, elset=set-47, material=ABS, temperature=GRADIENTS, section=RECT
10., 10.
0.,0.,-1.
** Section: ABS_section  Profile: square
*Beam Section, elset=set-48, material=ABS, temperature=GRADIENTS, section=RECT
10., 10.
0.,0.,-1.
** Section: ABS_section  Profile: square
*Beam Section, elset=set-49, material=ABS, temperature=GRADIENTS, section=RECT
10., 10.
0.,0.,-1.
** Section: ABS_section  Profile: square
*Beam Section, elset=set-50, material=ABS, temperature=GRADIENTS, section=RECT
10., 10.
0.,0.,-1.
** Section: PET_section  Profile: square
*Beam Section, elset=set-51, material=PET, temperature=GRADIENTS, section=RECT
10., 10.
0.,0.,-1.
** Section: PLA_section  Profile: square
*Beam Section, elset=set-52, material=PLA, temperature=GRADIENTS, section=RECT
10., 10.
0.,0.,-1.
** Section: PET_section  Profile: square
*Beam Section, elset=set-53, material=PET, temperature=GRADIENTS, section=RECT
10., 10.
0.,0.,-1.
** Section: PET_section  Profile: square
*Beam Section, elset=set-54, material=PET, temperature=GRADIENTS, section=RECT
10., 10.
0.,0.,-1.
** Section: PET_section  Profile: square
*Beam Section, elset=set-55, material=PET, temperature=GRADIENTS, section=RECT
10., 10.
0.,0.,-1.
** Section: PET_section  Profile: square
*Beam Section, elset=set-56, material=PET, temperature=GRADIENTS, section=RECT
10., 10.
0.,0.,-1.
** Section: PET_section  Profile: square
*Beam Section, elset=set-57, material=PET, temperature=GRADIENTS, section=RECT
10., 10.
0.,0.,-1.
** Section: PLA_section  Profile: square
*Beam Section, elset=set-58, material=PLA, temperature=GRADIENTS, section=RECT
10., 10.
0.,0.,-1.
** Section: PET_section  Profile: square
*Beam Section, elset=set-59, material=PET, temperature=GRADIENTS, section=RECT
10., 10.
0.,0.,-1.
** Section: ABS_section  Profile: square
*Beam Section, elset=set-60, material=ABS, temperature=GRADIENTS, section=RECT
10., 10.
0.,0.,-1.
** Section: PET_section  Profile: square
*Beam Section, elset=set-61, material=PET, temperature=GRADIENTS, section=RECT
10., 10.
0.,0.,-1.
** Section: PLA_section  Profile: square
*Beam Section, elset=set-62, material=PLA, temperature=GRADIENTS, section=RECT
10., 10.
0.,0.,-1.
** Section: ABS_section  Profile: square
*Beam Section, elset=set-63, material=ABS, temperature=GRADIENTS, section=RECT
10., 10.
0.,0.,-1.
** Section: PET_section  Profile: square
*Beam Section, elset=set-64, material=PET, temperature=GRADIENTS, section=RECT
10., 10.
0.,0.,-1.
** Section: ABS_section  Profile: square
*Beam Section, elset=set-65, material=ABS, temperature=GRADIENTS, section=RECT
10., 10.
0.,0.,-1.
** Section: PLA_section  Profile: square
*Beam Section, elset=set-66, material=PLA, temperature=GRADIENTS, section=RECT
10., 10.
0.,0.,-1.
** Section: PLA_section  Profile: square
*Beam Section, elset=set-67, material=PLA, temperature=GRADIENTS, section=RECT
10., 10.
0.,0.,-1.
** Section: ABS_section  Profile: square
*Beam Section, elset=set-68, material=ABS, temperature=GRADIENTS, section=RECT
10., 10.
0.,0.,-1.
** Section: PET_section  Profile: square
*Beam Section, elset=set-69, material=PET, temperature=GRADIENTS, section=RECT
10., 10.
0.,0.,-1.
** Section: PLA_section  Profile: square
*Beam Section, elset=set-70, material=PLA, temperature=GRADIENTS, section=RECT
10., 10.
0.,0.,-1.
** Section: PLA_section  Profile: square
*Beam Section, elset=set-71, material=PLA, temperature=GRADIENTS, section=RECT
10., 10.
0.,0.,-1.
** Section: ABS_section  Profile: square
*Beam Section, elset=set-72, material=ABS, temperature=GRADIENTS, section=RECT
10., 10.
0.,0.,-1.
** Section: ABS_section  Profile: square
*Beam Section, elset=set-73, material=ABS, temperature=GRADIENTS, section=RECT
10., 10.
0.,0.,-1.
** Section: PLA_section  Profile: square
*Beam Section, elset=set-74, material=PLA, temperature=GRADIENTS, section=RECT
10., 10.
0.,0.,-1.
** Section: PLA_section  Profile: square
*Beam Section, elset=set-75, material=PLA, temperature=GRADIENTS, section=RECT
10., 10.
0.,0.,-1.
** Section: ABS_section  Profile: square
*Beam Section, elset=set-76, material=ABS, temperature=GRADIENTS, section=RECT
10., 10.
0.,0.,-1.
** Section: ABS_section  Profile: square
*Beam Section, elset=set-77, material=ABS, temperature=GRADIENTS, section=RECT
10., 10.
0.,0.,-1.
** Section: PLA_section  Profile: square
*Beam Section, elset=set-78, material=PLA, temperature=GRADIENTS, section=RECT
10., 10.
0.,0.,-1.
** Section: ABS_section  Profile: square
*Beam Section, elset=set-79, material=ABS, temperature=GRADIENTS, section=RECT
10., 10.
0.,0.,-1.
** Section: ABS_section  Profile: square
*Beam Section, elset=set-80, material=ABS, temperature=GRADIENTS, section=RECT
10., 10.
0.,0.,-1.
** Section: ABS_section  Profile: square
*Beam Section, elset=set-81, material=ABS, temperature=GRADIENTS, section=RECT
10., 10.
0.,0.,-1.
** Section: ABS_section  Profile: square
*Beam Section, elset=set-82, material=ABS, temperature=GRADIENTS, section=RECT
10., 10.
0.,0.,-1.
** Section: PET_section  Profile: square
*Beam Section, elset=set-83, material=PET, temperature=GRADIENTS, section=RECT
10., 10.
0.,0.,-1.
** Section: PET_section  Profile: square
*Beam Section, elset=set-84, material=PET, temperature=GRADIENTS, section=RECT
10., 10.
0.,0.,-1.
** Section: ABS_section  Profile: square
*Beam Section, elset=set-85, material=ABS, temperature=GRADIENTS, section=RECT
10., 10.
0.,0.,-1.
** Section: PLA_section  Profile: square
*Beam Section, elset=set-86, material=PLA, temperature=GRADIENTS, section=RECT
10., 10.
0.,0.,-1.
** Section: PLA_section  Profile: square
*Beam Section, elset=set-87, material=PLA, temperature=GRADIENTS, section=RECT
10., 10.
0.,0.,-1.
** Section: PLA_section  Profile: square
*Beam Section, elset=set-88, material=PLA, temperature=GRADIENTS, section=RECT
10., 10.
0.,0.,-1.
** Section: PLA_section  Profile: square
*Beam Section, elset=set-89, material=PLA, temperature=GRADIENTS, section=RECT
10., 10.
0.,0.,-1.
** Section: PET_section  Profile: square
*Beam Section, elset=set-90, material=PET, temperature=GRADIENTS, section=RECT
10., 10.
0.,0.,-1.
** Section: PLA_section  Profile: square
*Beam Section, elset=set-91, material=PLA, temperature=GRADIENTS, section=RECT
10., 10.
0.,0.,-1.
** Section: PET_section  Profile: square
*Beam Section, elset=set-92, material=PET, temperature=GRADIENTS, section=RECT
10., 10.
0.,0.,-1.
** Section: PET_section  Profile: square
*Beam Section, elset=set-93, material=PET, temperature=GRADIENTS, section=RECT
10., 10.
0.,0.,-1.
** Section: PET_section  Profile: square
*Beam Section, elset=set-94, material=PET, temperature=GRADIENTS, section=RECT
10., 10.
0.,0.,-1.
** Section: PET_section  Profile: square
*Beam Section, elset=set-95, material=PET, temperature=GRADIENTS, section=RECT
10., 10.
0.,0.,-1.
** Section: PLA_section  Profile: square
*Beam Section, elset=set-96, material=PLA, temperature=GRADIENTS, section=RECT
10., 10.
0.,0.,-1.
** Section: ABS_section  Profile: square
*Beam Section, elset=set-97, material=ABS, temperature=GRADIENTS, section=RECT
10., 10.
0.,0.,-1.
** Section: ABS_section  Profile: square
*Beam Section, elset=set-98, material=ABS, temperature=GRADIENTS, section=RECT
10., 10.
0.,0.,-1.
** Section: PLA_section  Profile: square
*Beam Section, elset=set-99, material=PLA, temperature=GRADIENTS, section=RECT
10., 10.
0.,0.,-1.
*End Instance
**  
*Nset, nset=load_set, instance=Beam
 101,
*End Assembly
** 
** MATERIALS
** 
*Material, name=ABS
*Density
 1.1e-09,
*Elastic
2300., 0.4
*Material, name=PET
*Density
 1.4e-09,
*Elastic
3500., 0.35
*Material, name=PLA
*Density
 1.3e-09,
*Elastic
3200., 0.33
** ----------------------------------------------------------------
** 
** STEP: MyStep
** 
*Step, name=MyStep, nlgeom=NO
*Static
1., 1., 1e-05, 1.
** 
** BOUNDARY CONDITIONS
** 
** Name: Encastre Type: Symmetry/Antisymmetry/Encastre
*Boundary
Beam.set-0, ENCASTRE
** 
** LOADS
** 
** Name: UpForce   Type: Concentrated force
*Cload
load_set, 2, 1.
** 
** OUTPUT REQUESTS
** 
*Restart, write, frequency=0
** 
** FIELD OUTPUT: F-Output-1
** 
*Output, field, variable=PRESELECT
** 
** HISTORY OUTPUT: H-Output-1
** 
*Output, history, variable=PRESELECT
*End Step
