 Abaqus/Standard 2020                  DATE 04-Feb-2024 TIME 21:11:50
 SUMMARY OF JOB INFORMATION:
 STEP  INC ATT SEVERE EQUIL TOTAL  TOTAL      STEP       INC OF       DOF    IF
               DISCON ITERS ITERS  TIME/    TIME/LPF    TIME/LPF    MONITOR RIKS
               ITERS               FREQ
   1     1   1     0     1     1  1.00e-06   1.00e-06   1.000e-06 
   1     2   1     0     1     1  2.00e-06   2.00e-06   1.000e-06 
   1     3   1     0     1     1  3.00e-06   3.00e-06   1.000e-06 
   1     4   1     0     1     1  4.25e-06   4.25e-06   1.250e-06 
   1     5   1     0     1     1  5.81e-06   5.81e-06   1.562e-06 
   1     6   1     0     1     1  7.77e-06   7.77e-06   1.953e-06 
   1     7   1     0     1     1  1.02e-05   1.02e-05   2.441e-06 
   1     8   1     0     1     1  1.33e-05   1.33e-05   3.052e-06 
   1     9   1     0     1     1  1.71e-05   1.71e-05   3.815e-06 
   1    10   1     0     1     1  2.18e-05   2.18e-05   4.768e-06 
   1    11   1     0     1     1  2.78e-05   2.78e-05   5.960e-06 
   1    12   1     0     1     1  3.53e-05   3.53e-05   7.451e-06 
   1    13   1     0     1     1  4.46e-05   4.46e-05   9.313e-06 
   1    14   1     0     1     1  5.62e-05   5.62e-05   1.164e-05 
   1    15   1     0     1     1  7.08e-05   7.08e-05   1.455e-05 
   1    16   1     0     1     1  8.89e-05   8.89e-05   1.819e-05 
   1    17   1     0     1     1  0.000112   0.000112   2.274e-05 
   1    18   1     0     1     1  0.000140   0.000140   2.842e-05 
   1    19   1     0     1     1  0.000176   0.000176   3.553e-05 
   1    20   1     0     1     1  0.000220   0.000220   4.441e-05 
   1    21   1     0     1     1  0.000276   0.000276   5.551e-05 
   1    22   1     0     1     1  0.000331   0.000331   5.551e-05 
   1    23   1     0     1     1  0.000387   0.000387   5.551e-05 
   1    24   1     0     1     1  0.000442   0.000442   5.551e-05 
   1    25   1     0     1     1  0.000498   0.000498   5.551e-05 
   1    26   1     0     1     1  0.000553   0.000553   5.551e-05 
   1    27   1     0     1     1  0.000623   0.000623   6.939e-05 
   1    28   1     0     1     1  0.000707   0.000707   8.439e-05 
   1    29   1     0     1     1  0.000791   0.000791   8.439e-05 
   1    30   1     0     1     1  0.000876   0.000876   8.439e-05 
   1    31   1     0     1     1  0.000960   0.000960   8.439e-05 
   1    32   1     0     1     1  0.00104    0.00104    8.439e-05 
   1    33   1     0     1     1  0.00114    0.00114    0.0001000 
   1    34   1     0     1     1  0.00124    0.00124    0.0001000 
   1    35   1     0     1     1  0.00134    0.00134    0.0001000 
   1    36   1     0     1     1  0.00144    0.00144    0.0001000 
   1    37   1     0     1     1  0.00154    0.00154    0.0001000 
   1    38   1     0     1     1  0.00164    0.00164    0.0001000 
   1    39   1     0     1     1  0.00174    0.00174    0.0001000 
   1    40   1     0     1     1  0.00184    0.00184    0.0001000 
   1    41   1     0     1     1  0.00194    0.00194    0.0001000 
   1    42   1     0     1     1  0.00204    0.00204    0.0001000 
   1    43   1     0     1     1  0.00214    0.00214    0.0001000 
   1    44   1     0     1     1  0.00224    0.00224    0.0001000 
   1    45   1     0     1     1  0.00234    0.00234    0.0001000 
   1    46   1     0     1     1  0.00244    0.00244    0.0001000 
   1    47   1     0     1     1  0.00254    0.00254    0.0001000 
   1    48   1     0     1     1  0.00264    0.00264    0.0001000 
   1    49   1     0     1     1  0.00274    0.00274    0.0001000 
   1    50   1     0     1     1  0.00284    0.00284    0.0001000 
   1    51   1     0     1     1  0.00294    0.00294    0.0001000 
   1    52   1     0     1     1  0.00304    0.00304    0.0001000 
   1    53   1     0     1     1  0.00314    0.00314    0.0001000 
   1    54   1     0     1     1  0.00324    0.00324    0.0001000 
   1    55   1     0     1     1  0.00334    0.00334    0.0001000 
   1    56   1     0     1     1  0.00344    0.00344    0.0001000 
   1    57   1     0     1     1  0.00354    0.00354    0.0001000 
   1    58   1     0     1     1  0.00364    0.00364    0.0001000 
   1    59   1     0     1     1  0.00374    0.00374    0.0001000 
   1    60   1     0     1     1  0.00384    0.00384    0.0001000 
   1    61   1     0     1     1  0.00394    0.00394    0.0001000 
   1    62   1     0     1     1  0.00404    0.00404    0.0001000 
   1    63   1     0     1     1  0.00414    0.00414    0.0001000 
   1    64   1     0     1     1  0.00424    0.00424    0.0001000 
   1    65   1     0     1     1  0.00434    0.00434    0.0001000 
   1    66   1     0     1     1  0.00444    0.00444    0.0001000 
   1    67   1     0     1     1  0.00454    0.00454    0.0001000 
   1    68   1     0     1     1  0.00464    0.00464    0.0001000 
   1    69   1     0     1     1  0.00474    0.00474    0.0001000 
   1    70   1     0     1     1  0.00484    0.00484    0.0001000 
   1    71   1     0     1     1  0.00494    0.00494    0.0001000 
   1    72   1     0     1     1  0.00504    0.00504    0.0001000 
   1    73   1     0     1     1  0.00514    0.00514    0.0001000 
   1    74   1     0     1     1  0.00524    0.00524    0.0001000 
   1    75   1     0     1     1  0.00534    0.00534    0.0001000 
   1    76   1     0     1     1  0.00544    0.00544    0.0001000 
   1    77   1     0     1     1  0.00554    0.00554    0.0001000 
   1    78   1     0     1     1  0.00564    0.00564    0.0001000 
   1    79   1     0     1     1  0.00574    0.00574    0.0001000 
   1    80   1     0     1     1  0.00584    0.00584    0.0001000 
   1    81   1     0     1     1  0.00594    0.00594    0.0001000 
   1    82   1     0     1     1  0.00604    0.00604    0.0001000 
   1    83   1     0     1     1  0.00614    0.00614    0.0001000 
   1    84   1     0     1     1  0.00624    0.00624    0.0001000 
   1    85   1     0     1     1  0.00634    0.00634    0.0001000 
   1    86   1     0     1     1  0.00644    0.00644    0.0001000 
   1    87   1     0     1     1  0.00654    0.00654    0.0001000 
   1    88   1     0     1     1  0.00664    0.00664    0.0001000 
   1    89   1     0     1     1  0.00674    0.00674    0.0001000 
   1    90   1     0     1     1  0.00684    0.00684    0.0001000 
   1    91   1     0     1     1  0.00694    0.00694    0.0001000 
   1    92   1     0     1     1  0.00704    0.00704    0.0001000 
   1    93   1     0     1     1  0.00714    0.00714    0.0001000 
   1    94   1     0     1     1  0.00724    0.00724    0.0001000 
   1    95   1     0     1     1  0.00734    0.00734    0.0001000 
   1    96   1     0     1     1  0.00744    0.00744    0.0001000 
   1    97   1     0     1     1  0.00754    0.00754    0.0001000 
   1    98   1     0     1     1  0.00764    0.00764    0.0001000 
   1    99   1     0     1     1  0.00774    0.00774    0.0001000 
   1   100   1     0     1     1  0.00784    0.00784    0.0001000 
   1   101   1     0     1     1  0.00794    0.00794    0.0001000 
   1   102   1     0     1     1  0.00804    0.00804    0.0001000 
   1   103   1     0     1     1  0.00814    0.00814    0.0001000 
   1   104   1     0     1     1  0.00824    0.00824    0.0001000 
   1   105   1     0     1     1  0.00834    0.00834    0.0001000 
   1   106   1     0     1     1  0.00844    0.00844    0.0001000 
   1   107   1     0     1     1  0.00854    0.00854    0.0001000 
   1   108   1     0     1     1  0.00864    0.00864    0.0001000 
   1   109   1     0     1     1  0.00874    0.00874    0.0001000 
   1   110   1     0     1     1  0.00884    0.00884    0.0001000 
   1   111   1     0     1     1  0.00894    0.00894    0.0001000 
   1   112   1     0     1     1  0.00904    0.00904    0.0001000 
   1   113   1     0     1     1  0.00914    0.00914    0.0001000 
   1   114   1     0     1     1  0.00924    0.00924    0.0001000 
   1   115   1     0     1     1  0.00934    0.00934    0.0001000 
   1   116   1     0     1     1  0.00944    0.00944    0.0001000 
   1   117   1     0     1     1  0.00954    0.00954    0.0001000 
   1   118   1     0     1     1  0.00964    0.00964    0.0001000 
   1   119   1     0     1     1  0.00974    0.00974    0.0001000 
   1   120   1     0     1     1  0.00984    0.00984    0.0001000 
   1   121   1     0     1     1  0.00994    0.00994    0.0001000 
   1   122   1     0     1     1  0.0100     0.0100     5.553e-05 
                          
 THE ANALYSIS HAS COMPLETED SUCCESSFULLY
